version 2
run General-0-20130410-15:54:08-3530
attr configname General
attr datetime 20130410-15:54:08
attr experiment General
attr inifile latencyComparative3paths222.ini
attr iterationvars ""
attr iterationvars2 $repetition=0
attr measurement ""
attr network arppathbridgesunidireccional.src.topologies.latencyComparative.latencyComparativeGeneric
attr processid 3530
attr repetition 0
attr replication #0
attr resultdir results
attr runnumber 0
attr seedset 0

scalar latencyComparativeGeneric.edgeSwitchLeft.relayUnit 	"processed frames" 	2
scalar latencyComparativeGeneric.edgeSwitchLeft.relayUnit 	"dropped frames" 	0
scalar latencyComparativeGeneric.edgeSwitchLeft.relayUnit 	"processed frames" 	2
scalar latencyComparativeGeneric.edgeSwitchLeft.relayUnit 	"dropped frames" 	0
scalar latencyComparativeGeneric.edgeSwitchLeft.relayUnit 	"retx frames" 	0
scalar latencyComparativeGeneric.edgeSwitchLeft.relayUnit 	"multicast frames rcvd" 	0
scalar latencyComparativeGeneric.edgeSwitchLeft.relayUnit 	"ARP requests rcvd" 	0
scalar latencyComparativeGeneric.edgeSwitchLeft.relayUnit 	"ARP replies rcvd" 	0
scalar latencyComparativeGeneric.edgeSwitchLeft.relayUnit 	"number of reparations" 	0
scalar latencyComparativeGeneric.edgeSwitchLeft.mac[0] 	"simulated time" 	1.000084709989
scalar latencyComparativeGeneric.edgeSwitchLeft.mac[0] 	full-duplex 	1
scalar latencyComparativeGeneric.edgeSwitchLeft.mac[0] 	"frames/sec sent" 	0.99991529718617
scalar latencyComparativeGeneric.edgeSwitchLeft.mac[0] 	"frames/sec rcvd" 	0.99991529718617
scalar latencyComparativeGeneric.edgeSwitchLeft.mac[0] 	"bits/sec sent" 	511.95663215932
scalar latencyComparativeGeneric.edgeSwitchLeft.mac[0] 	"bits/sec rcvd" 	511.95663215932
scalar latencyComparativeGeneric.edgeSwitchLeft.mac[0] 	"rx channel idle (%)" 	99.999424048789
scalar latencyComparativeGeneric.edgeSwitchLeft.mac[0] 	"rx channel utilization (%)" 	0.00057595121117924
scalar latencyComparativeGeneric.edgeSwitchLeft.mac[0] 	"rx channel collision (%)" 	0
scalar latencyComparativeGeneric.edgeSwitchLeft.mac[0] 	collisions 	0
scalar latencyComparativeGeneric.edgeSwitchLeft.mac[0] 	backoffs 	0
scalar latencyComparativeGeneric.edgeSwitchLeft.mac[0] 	"average latency" 	0
scalar latencyComparativeGeneric.edgeSwitchLeft.mac[0] 	"max latency" 	0
scalar latencyComparativeGeneric.edgeSwitchLeft.mac[0] 	"min latency" 	100
scalar latencyComparativeGeneric.edgeSwitchLeft.mac[0] 	"average processing time" 	8.719999e-06
scalar latencyComparativeGeneric.edgeSwitchLeft.mac[0] 	"max processing time" 	8.719999e-06
scalar latencyComparativeGeneric.edgeSwitchLeft.mac[0] 	"min processing time" 	8.719999e-06
scalar latencyComparativeGeneric.edgeSwitchLeft.mac[0] 	"ARP requests rcvd" 	1
scalar latencyComparativeGeneric.edgeSwitchLeft.mac[0] 	backoff:count 	0
attr interpolationmode  none
attr title  "backoff, count"
scalar latencyComparativeGeneric.edgeSwitchLeft.mac[0] 	collision:count 	0
attr interpolationmode  none
attr title  "collision, count"
scalar latencyComparativeGeneric.edgeSwitchLeft.mac[0] 	droppedPkNotForUs:count 	0
attr interpolationmode  none
attr source  dropPkNotForUs
attr title  "packets dropped/not for us, count"
scalar latencyComparativeGeneric.edgeSwitchLeft.mac[0] 	droppedPkNotForUs:sum(packetBytes) 	0
attr interpolationmode  none
attr source  dropPkNotForUs
attr title  "packets dropped/not for us, sum(packetBytes)"
scalar latencyComparativeGeneric.edgeSwitchLeft.mac[0] 	droppedPkBitError:count 	0
attr interpolationmode  none
attr source  dropPkBitError
attr title  "packets dropped/bit error, count"
scalar latencyComparativeGeneric.edgeSwitchLeft.mac[0] 	droppedPkBitError:sum(packetBytes) 	0
attr interpolationmode  none
attr source  dropPkBitError
attr title  "packets dropped/bit error, sum(packetBytes)"
scalar latencyComparativeGeneric.edgeSwitchLeft.mac[0] 	droppedPkIfaceDown:count 	0
attr interpolationmode  none
attr source  dropPkIfaceDown
attr title  "packets dropped/interface down, count"
scalar latencyComparativeGeneric.edgeSwitchLeft.mac[0] 	droppedPkIfaceDown:sum(packetBytes) 	0
attr interpolationmode  none
attr source  dropPkIfaceDown
attr title  "packets dropped/interface down, sum(packetBytes)"
scalar latencyComparativeGeneric.edgeSwitchLeft.mac[0] 	rxPkFromHL:count 	1
attr interpolationmode  none
attr source  rxPkFromHL
attr title  "packet bytes from higher layer, count"
scalar latencyComparativeGeneric.edgeSwitchLeft.mac[0] 	rxPkFromHL:sum(packetBytes) 	64
attr interpolationmode  none
attr source  rxPkFromHL
attr title  "packet bytes from higher layer, sum(packetBytes)"
scalar latencyComparativeGeneric.edgeSwitchLeft.mac[0] 	rxPausePkUnits:count 	0
attr interpolationmode  none
attr title  "pause units received, count"
scalar latencyComparativeGeneric.edgeSwitchLeft.mac[0] 	rxPausePkUnits:sum 	0
attr interpolationmode  none
attr title  "pause units received, sum"
scalar latencyComparativeGeneric.edgeSwitchLeft.mac[0] 	txPausePkUnits:count 	0
attr interpolationmode  none
attr title  "pause units sent, count"
scalar latencyComparativeGeneric.edgeSwitchLeft.mac[0] 	txPausePkUnits:sum 	0
attr interpolationmode  none
attr title  "pause units sent, sum"
scalar latencyComparativeGeneric.edgeSwitchLeft.mac[0] 	passedUpPk:count 	1
attr interpolationmode  none
attr source  packetSentToUpper
attr title  "packets passed to higher layer, count"
scalar latencyComparativeGeneric.edgeSwitchLeft.mac[0] 	passedUpPk:sum(packetBytes) 	64
attr interpolationmode  none
attr source  packetSentToUpper
attr title  "packets passed to higher layer, sum(packetBytes)"
scalar latencyComparativeGeneric.edgeSwitchLeft.mac[0] 	rxPkOk:count 	1
attr interpolationmode  none
attr source  rxPkOk
attr title  "packets received OK, count"
scalar latencyComparativeGeneric.edgeSwitchLeft.mac[0] 	rxPkOk:sum(packetBytes) 	64
attr interpolationmode  none
attr source  rxPkOk
attr title  "packets received OK, sum(packetBytes)"
scalar latencyComparativeGeneric.edgeSwitchLeft.mac[0] 	txPk:count 	1
attr interpolationmode  none
attr source  txPk
attr title  "packets transmitted, count"
scalar latencyComparativeGeneric.edgeSwitchLeft.mac[0] 	txPk:sum(packetBytes) 	64
attr interpolationmode  none
attr source  txPk
attr title  "packets transmitted, sum(packetBytes)"
scalar latencyComparativeGeneric.edgeSwitchLeft.mac[1] 	"simulated time" 	1.000084709989
scalar latencyComparativeGeneric.edgeSwitchLeft.mac[1] 	full-duplex 	1
scalar latencyComparativeGeneric.edgeSwitchLeft.mac[1] 	"frames/sec sent" 	0.99991529718617
scalar latencyComparativeGeneric.edgeSwitchLeft.mac[1] 	"frames/sec rcvd" 	0
scalar latencyComparativeGeneric.edgeSwitchLeft.mac[1] 	"bits/sec sent" 	511.95663215932
scalar latencyComparativeGeneric.edgeSwitchLeft.mac[1] 	"bits/sec rcvd" 	0
scalar latencyComparativeGeneric.edgeSwitchLeft.mac[1] 	"rx channel idle (%)" 	100
scalar latencyComparativeGeneric.edgeSwitchLeft.mac[1] 	"rx channel utilization (%)" 	0
scalar latencyComparativeGeneric.edgeSwitchLeft.mac[1] 	"rx channel collision (%)" 	0
scalar latencyComparativeGeneric.edgeSwitchLeft.mac[1] 	collisions 	0
scalar latencyComparativeGeneric.edgeSwitchLeft.mac[1] 	backoffs 	0
scalar latencyComparativeGeneric.edgeSwitchLeft.mac[1] 	"average latency" 	0
scalar latencyComparativeGeneric.edgeSwitchLeft.mac[1] 	"max latency" 	0
scalar latencyComparativeGeneric.edgeSwitchLeft.mac[1] 	"min latency" 	100
scalar latencyComparativeGeneric.edgeSwitchLeft.mac[1] 	"average processing time" 	8.719999e-06
scalar latencyComparativeGeneric.edgeSwitchLeft.mac[1] 	"max processing time" 	8.719999e-06
scalar latencyComparativeGeneric.edgeSwitchLeft.mac[1] 	"min processing time" 	8.719999e-06
scalar latencyComparativeGeneric.edgeSwitchLeft.mac[1] 	"ARP requests rcvd" 	0
scalar latencyComparativeGeneric.edgeSwitchLeft.mac[1] 	backoff:count 	0
attr interpolationmode  none
attr title  "backoff, count"
scalar latencyComparativeGeneric.edgeSwitchLeft.mac[1] 	collision:count 	0
attr interpolationmode  none
attr title  "collision, count"
scalar latencyComparativeGeneric.edgeSwitchLeft.mac[1] 	droppedPkNotForUs:count 	0
attr interpolationmode  none
attr source  dropPkNotForUs
attr title  "packets dropped/not for us, count"
scalar latencyComparativeGeneric.edgeSwitchLeft.mac[1] 	droppedPkNotForUs:sum(packetBytes) 	0
attr interpolationmode  none
attr source  dropPkNotForUs
attr title  "packets dropped/not for us, sum(packetBytes)"
scalar latencyComparativeGeneric.edgeSwitchLeft.mac[1] 	droppedPkBitError:count 	0
attr interpolationmode  none
attr source  dropPkBitError
attr title  "packets dropped/bit error, count"
scalar latencyComparativeGeneric.edgeSwitchLeft.mac[1] 	droppedPkBitError:sum(packetBytes) 	0
attr interpolationmode  none
attr source  dropPkBitError
attr title  "packets dropped/bit error, sum(packetBytes)"
scalar latencyComparativeGeneric.edgeSwitchLeft.mac[1] 	droppedPkIfaceDown:count 	0
attr interpolationmode  none
attr source  dropPkIfaceDown
attr title  "packets dropped/interface down, count"
scalar latencyComparativeGeneric.edgeSwitchLeft.mac[1] 	droppedPkIfaceDown:sum(packetBytes) 	0
attr interpolationmode  none
attr source  dropPkIfaceDown
attr title  "packets dropped/interface down, sum(packetBytes)"
scalar latencyComparativeGeneric.edgeSwitchLeft.mac[1] 	rxPkFromHL:count 	1
attr interpolationmode  none
attr source  rxPkFromHL
attr title  "packet bytes from higher layer, count"
scalar latencyComparativeGeneric.edgeSwitchLeft.mac[1] 	rxPkFromHL:sum(packetBytes) 	64
attr interpolationmode  none
attr source  rxPkFromHL
attr title  "packet bytes from higher layer, sum(packetBytes)"
scalar latencyComparativeGeneric.edgeSwitchLeft.mac[1] 	rxPausePkUnits:count 	0
attr interpolationmode  none
attr title  "pause units received, count"
scalar latencyComparativeGeneric.edgeSwitchLeft.mac[1] 	rxPausePkUnits:sum 	0
attr interpolationmode  none
attr title  "pause units received, sum"
scalar latencyComparativeGeneric.edgeSwitchLeft.mac[1] 	txPausePkUnits:count 	0
attr interpolationmode  none
attr title  "pause units sent, count"
scalar latencyComparativeGeneric.edgeSwitchLeft.mac[1] 	txPausePkUnits:sum 	0
attr interpolationmode  none
attr title  "pause units sent, sum"
scalar latencyComparativeGeneric.edgeSwitchLeft.mac[1] 	passedUpPk:count 	0
attr interpolationmode  none
attr source  packetSentToUpper
attr title  "packets passed to higher layer, count"
scalar latencyComparativeGeneric.edgeSwitchLeft.mac[1] 	passedUpPk:sum(packetBytes) 	0
attr interpolationmode  none
attr source  packetSentToUpper
attr title  "packets passed to higher layer, sum(packetBytes)"
scalar latencyComparativeGeneric.edgeSwitchLeft.mac[1] 	rxPkOk:count 	0
attr interpolationmode  none
attr source  rxPkOk
attr title  "packets received OK, count"
scalar latencyComparativeGeneric.edgeSwitchLeft.mac[1] 	rxPkOk:sum(packetBytes) 	0
attr interpolationmode  none
attr source  rxPkOk
attr title  "packets received OK, sum(packetBytes)"
scalar latencyComparativeGeneric.edgeSwitchLeft.mac[1] 	txPk:count 	1
attr interpolationmode  none
attr source  txPk
attr title  "packets transmitted, count"
scalar latencyComparativeGeneric.edgeSwitchLeft.mac[1] 	txPk:sum(packetBytes) 	64
attr interpolationmode  none
attr source  txPk
attr title  "packets transmitted, sum(packetBytes)"
scalar latencyComparativeGeneric.edgeSwitchLeft.mac[2] 	"simulated time" 	1.000084709989
scalar latencyComparativeGeneric.edgeSwitchLeft.mac[2] 	full-duplex 	1
scalar latencyComparativeGeneric.edgeSwitchLeft.mac[2] 	"frames/sec sent" 	0.99991529718617
scalar latencyComparativeGeneric.edgeSwitchLeft.mac[2] 	"frames/sec rcvd" 	0
scalar latencyComparativeGeneric.edgeSwitchLeft.mac[2] 	"bits/sec sent" 	511.95663215932
scalar latencyComparativeGeneric.edgeSwitchLeft.mac[2] 	"bits/sec rcvd" 	0
scalar latencyComparativeGeneric.edgeSwitchLeft.mac[2] 	"rx channel idle (%)" 	100
scalar latencyComparativeGeneric.edgeSwitchLeft.mac[2] 	"rx channel utilization (%)" 	0
scalar latencyComparativeGeneric.edgeSwitchLeft.mac[2] 	"rx channel collision (%)" 	0
scalar latencyComparativeGeneric.edgeSwitchLeft.mac[2] 	collisions 	0
scalar latencyComparativeGeneric.edgeSwitchLeft.mac[2] 	backoffs 	0
scalar latencyComparativeGeneric.edgeSwitchLeft.mac[2] 	"average latency" 	0
scalar latencyComparativeGeneric.edgeSwitchLeft.mac[2] 	"max latency" 	0
scalar latencyComparativeGeneric.edgeSwitchLeft.mac[2] 	"min latency" 	100
scalar latencyComparativeGeneric.edgeSwitchLeft.mac[2] 	"average processing time" 	8.719999e-06
scalar latencyComparativeGeneric.edgeSwitchLeft.mac[2] 	"max processing time" 	8.719999e-06
scalar latencyComparativeGeneric.edgeSwitchLeft.mac[2] 	"min processing time" 	8.719999e-06
scalar latencyComparativeGeneric.edgeSwitchLeft.mac[2] 	"ARP requests rcvd" 	0
scalar latencyComparativeGeneric.edgeSwitchLeft.mac[2] 	backoff:count 	0
attr interpolationmode  none
attr title  "backoff, count"
scalar latencyComparativeGeneric.edgeSwitchLeft.mac[2] 	collision:count 	0
attr interpolationmode  none
attr title  "collision, count"
scalar latencyComparativeGeneric.edgeSwitchLeft.mac[2] 	droppedPkNotForUs:count 	0
attr interpolationmode  none
attr source  dropPkNotForUs
attr title  "packets dropped/not for us, count"
scalar latencyComparativeGeneric.edgeSwitchLeft.mac[2] 	droppedPkNotForUs:sum(packetBytes) 	0
attr interpolationmode  none
attr source  dropPkNotForUs
attr title  "packets dropped/not for us, sum(packetBytes)"
scalar latencyComparativeGeneric.edgeSwitchLeft.mac[2] 	droppedPkBitError:count 	0
attr interpolationmode  none
attr source  dropPkBitError
attr title  "packets dropped/bit error, count"
scalar latencyComparativeGeneric.edgeSwitchLeft.mac[2] 	droppedPkBitError:sum(packetBytes) 	0
attr interpolationmode  none
attr source  dropPkBitError
attr title  "packets dropped/bit error, sum(packetBytes)"
scalar latencyComparativeGeneric.edgeSwitchLeft.mac[2] 	droppedPkIfaceDown:count 	0
attr interpolationmode  none
attr source  dropPkIfaceDown
attr title  "packets dropped/interface down, count"
scalar latencyComparativeGeneric.edgeSwitchLeft.mac[2] 	droppedPkIfaceDown:sum(packetBytes) 	0
attr interpolationmode  none
attr source  dropPkIfaceDown
attr title  "packets dropped/interface down, sum(packetBytes)"
scalar latencyComparativeGeneric.edgeSwitchLeft.mac[2] 	rxPkFromHL:count 	1
attr interpolationmode  none
attr source  rxPkFromHL
attr title  "packet bytes from higher layer, count"
scalar latencyComparativeGeneric.edgeSwitchLeft.mac[2] 	rxPkFromHL:sum(packetBytes) 	64
attr interpolationmode  none
attr source  rxPkFromHL
attr title  "packet bytes from higher layer, sum(packetBytes)"
scalar latencyComparativeGeneric.edgeSwitchLeft.mac[2] 	rxPausePkUnits:count 	0
attr interpolationmode  none
attr title  "pause units received, count"
scalar latencyComparativeGeneric.edgeSwitchLeft.mac[2] 	rxPausePkUnits:sum 	0
attr interpolationmode  none
attr title  "pause units received, sum"
scalar latencyComparativeGeneric.edgeSwitchLeft.mac[2] 	txPausePkUnits:count 	0
attr interpolationmode  none
attr title  "pause units sent, count"
scalar latencyComparativeGeneric.edgeSwitchLeft.mac[2] 	txPausePkUnits:sum 	0
attr interpolationmode  none
attr title  "pause units sent, sum"
scalar latencyComparativeGeneric.edgeSwitchLeft.mac[2] 	passedUpPk:count 	0
attr interpolationmode  none
attr source  packetSentToUpper
attr title  "packets passed to higher layer, count"
scalar latencyComparativeGeneric.edgeSwitchLeft.mac[2] 	passedUpPk:sum(packetBytes) 	0
attr interpolationmode  none
attr source  packetSentToUpper
attr title  "packets passed to higher layer, sum(packetBytes)"
scalar latencyComparativeGeneric.edgeSwitchLeft.mac[2] 	rxPkOk:count 	0
attr interpolationmode  none
attr source  rxPkOk
attr title  "packets received OK, count"
scalar latencyComparativeGeneric.edgeSwitchLeft.mac[2] 	rxPkOk:sum(packetBytes) 	0
attr interpolationmode  none
attr source  rxPkOk
attr title  "packets received OK, sum(packetBytes)"
scalar latencyComparativeGeneric.edgeSwitchLeft.mac[2] 	txPk:count 	1
attr interpolationmode  none
attr source  txPk
attr title  "packets transmitted, count"
scalar latencyComparativeGeneric.edgeSwitchLeft.mac[2] 	txPk:sum(packetBytes) 	64
attr interpolationmode  none
attr source  txPk
attr title  "packets transmitted, sum(packetBytes)"
scalar latencyComparativeGeneric.edgeSwitchLeft.mac[3] 	"simulated time" 	1.000084709989
scalar latencyComparativeGeneric.edgeSwitchLeft.mac[3] 	full-duplex 	1
scalar latencyComparativeGeneric.edgeSwitchLeft.mac[3] 	"frames/sec sent" 	0.99991529718617
scalar latencyComparativeGeneric.edgeSwitchLeft.mac[3] 	"frames/sec rcvd" 	0
scalar latencyComparativeGeneric.edgeSwitchLeft.mac[3] 	"bits/sec sent" 	511.95663215932
scalar latencyComparativeGeneric.edgeSwitchLeft.mac[3] 	"bits/sec rcvd" 	0
scalar latencyComparativeGeneric.edgeSwitchLeft.mac[3] 	"rx channel idle (%)" 	100
scalar latencyComparativeGeneric.edgeSwitchLeft.mac[3] 	"rx channel utilization (%)" 	0
scalar latencyComparativeGeneric.edgeSwitchLeft.mac[3] 	"rx channel collision (%)" 	0
scalar latencyComparativeGeneric.edgeSwitchLeft.mac[3] 	collisions 	0
scalar latencyComparativeGeneric.edgeSwitchLeft.mac[3] 	backoffs 	0
scalar latencyComparativeGeneric.edgeSwitchLeft.mac[3] 	"average latency" 	0
scalar latencyComparativeGeneric.edgeSwitchLeft.mac[3] 	"max latency" 	0
scalar latencyComparativeGeneric.edgeSwitchLeft.mac[3] 	"min latency" 	100
scalar latencyComparativeGeneric.edgeSwitchLeft.mac[3] 	"average processing time" 	8.719999e-06
scalar latencyComparativeGeneric.edgeSwitchLeft.mac[3] 	"max processing time" 	8.719999e-06
scalar latencyComparativeGeneric.edgeSwitchLeft.mac[3] 	"min processing time" 	8.719999e-06
scalar latencyComparativeGeneric.edgeSwitchLeft.mac[3] 	"ARP requests rcvd" 	0
scalar latencyComparativeGeneric.edgeSwitchLeft.mac[3] 	backoff:count 	0
attr interpolationmode  none
attr title  "backoff, count"
scalar latencyComparativeGeneric.edgeSwitchLeft.mac[3] 	collision:count 	0
attr interpolationmode  none
attr title  "collision, count"
scalar latencyComparativeGeneric.edgeSwitchLeft.mac[3] 	droppedPkNotForUs:count 	0
attr interpolationmode  none
attr source  dropPkNotForUs
attr title  "packets dropped/not for us, count"
scalar latencyComparativeGeneric.edgeSwitchLeft.mac[3] 	droppedPkNotForUs:sum(packetBytes) 	0
attr interpolationmode  none
attr source  dropPkNotForUs
attr title  "packets dropped/not for us, sum(packetBytes)"
scalar latencyComparativeGeneric.edgeSwitchLeft.mac[3] 	droppedPkBitError:count 	0
attr interpolationmode  none
attr source  dropPkBitError
attr title  "packets dropped/bit error, count"
scalar latencyComparativeGeneric.edgeSwitchLeft.mac[3] 	droppedPkBitError:sum(packetBytes) 	0
attr interpolationmode  none
attr source  dropPkBitError
attr title  "packets dropped/bit error, sum(packetBytes)"
scalar latencyComparativeGeneric.edgeSwitchLeft.mac[3] 	droppedPkIfaceDown:count 	0
attr interpolationmode  none
attr source  dropPkIfaceDown
attr title  "packets dropped/interface down, count"
scalar latencyComparativeGeneric.edgeSwitchLeft.mac[3] 	droppedPkIfaceDown:sum(packetBytes) 	0
attr interpolationmode  none
attr source  dropPkIfaceDown
attr title  "packets dropped/interface down, sum(packetBytes)"
scalar latencyComparativeGeneric.edgeSwitchLeft.mac[3] 	rxPkFromHL:count 	1
attr interpolationmode  none
attr source  rxPkFromHL
attr title  "packet bytes from higher layer, count"
scalar latencyComparativeGeneric.edgeSwitchLeft.mac[3] 	rxPkFromHL:sum(packetBytes) 	64
attr interpolationmode  none
attr source  rxPkFromHL
attr title  "packet bytes from higher layer, sum(packetBytes)"
scalar latencyComparativeGeneric.edgeSwitchLeft.mac[3] 	rxPausePkUnits:count 	0
attr interpolationmode  none
attr title  "pause units received, count"
scalar latencyComparativeGeneric.edgeSwitchLeft.mac[3] 	rxPausePkUnits:sum 	0
attr interpolationmode  none
attr title  "pause units received, sum"
scalar latencyComparativeGeneric.edgeSwitchLeft.mac[3] 	txPausePkUnits:count 	0
attr interpolationmode  none
attr title  "pause units sent, count"
scalar latencyComparativeGeneric.edgeSwitchLeft.mac[3] 	txPausePkUnits:sum 	0
attr interpolationmode  none
attr title  "pause units sent, sum"
scalar latencyComparativeGeneric.edgeSwitchLeft.mac[3] 	passedUpPk:count 	0
attr interpolationmode  none
attr source  packetSentToUpper
attr title  "packets passed to higher layer, count"
scalar latencyComparativeGeneric.edgeSwitchLeft.mac[3] 	passedUpPk:sum(packetBytes) 	0
attr interpolationmode  none
attr source  packetSentToUpper
attr title  "packets passed to higher layer, sum(packetBytes)"
scalar latencyComparativeGeneric.edgeSwitchLeft.mac[3] 	rxPkOk:count 	0
attr interpolationmode  none
attr source  rxPkOk
attr title  "packets received OK, count"
scalar latencyComparativeGeneric.edgeSwitchLeft.mac[3] 	rxPkOk:sum(packetBytes) 	0
attr interpolationmode  none
attr source  rxPkOk
attr title  "packets received OK, sum(packetBytes)"
scalar latencyComparativeGeneric.edgeSwitchLeft.mac[3] 	txPk:count 	1
attr interpolationmode  none
attr source  txPk
attr title  "packets transmitted, count"
scalar latencyComparativeGeneric.edgeSwitchLeft.mac[3] 	txPk:sum(packetBytes) 	64
attr interpolationmode  none
attr source  txPk
attr title  "packets transmitted, sum(packetBytes)"
scalar latencyComparativeGeneric.edgeSwitchLeft.mac[4] 	"simulated time" 	1.000084709989
scalar latencyComparativeGeneric.edgeSwitchLeft.mac[4] 	full-duplex 	1
scalar latencyComparativeGeneric.edgeSwitchLeft.mac[4] 	"frames/sec sent" 	0.99991529718617
scalar latencyComparativeGeneric.edgeSwitchLeft.mac[4] 	"frames/sec rcvd" 	0
scalar latencyComparativeGeneric.edgeSwitchLeft.mac[4] 	"bits/sec sent" 	511.95663215932
scalar latencyComparativeGeneric.edgeSwitchLeft.mac[4] 	"bits/sec rcvd" 	0
scalar latencyComparativeGeneric.edgeSwitchLeft.mac[4] 	"rx channel idle (%)" 	100
scalar latencyComparativeGeneric.edgeSwitchLeft.mac[4] 	"rx channel utilization (%)" 	0
scalar latencyComparativeGeneric.edgeSwitchLeft.mac[4] 	"rx channel collision (%)" 	0
scalar latencyComparativeGeneric.edgeSwitchLeft.mac[4] 	collisions 	0
scalar latencyComparativeGeneric.edgeSwitchLeft.mac[4] 	backoffs 	0
scalar latencyComparativeGeneric.edgeSwitchLeft.mac[4] 	"average latency" 	0
scalar latencyComparativeGeneric.edgeSwitchLeft.mac[4] 	"max latency" 	0
scalar latencyComparativeGeneric.edgeSwitchLeft.mac[4] 	"min latency" 	100
scalar latencyComparativeGeneric.edgeSwitchLeft.mac[4] 	"average processing time" 	8.719999e-06
scalar latencyComparativeGeneric.edgeSwitchLeft.mac[4] 	"max processing time" 	8.719999e-06
scalar latencyComparativeGeneric.edgeSwitchLeft.mac[4] 	"min processing time" 	8.719999e-06
scalar latencyComparativeGeneric.edgeSwitchLeft.mac[4] 	"ARP requests rcvd" 	0
scalar latencyComparativeGeneric.edgeSwitchLeft.mac[4] 	backoff:count 	0
attr interpolationmode  none
attr title  "backoff, count"
scalar latencyComparativeGeneric.edgeSwitchLeft.mac[4] 	collision:count 	0
attr interpolationmode  none
attr title  "collision, count"
scalar latencyComparativeGeneric.edgeSwitchLeft.mac[4] 	droppedPkNotForUs:count 	0
attr interpolationmode  none
attr source  dropPkNotForUs
attr title  "packets dropped/not for us, count"
scalar latencyComparativeGeneric.edgeSwitchLeft.mac[4] 	droppedPkNotForUs:sum(packetBytes) 	0
attr interpolationmode  none
attr source  dropPkNotForUs
attr title  "packets dropped/not for us, sum(packetBytes)"
scalar latencyComparativeGeneric.edgeSwitchLeft.mac[4] 	droppedPkBitError:count 	0
attr interpolationmode  none
attr source  dropPkBitError
attr title  "packets dropped/bit error, count"
scalar latencyComparativeGeneric.edgeSwitchLeft.mac[4] 	droppedPkBitError:sum(packetBytes) 	0
attr interpolationmode  none
attr source  dropPkBitError
attr title  "packets dropped/bit error, sum(packetBytes)"
scalar latencyComparativeGeneric.edgeSwitchLeft.mac[4] 	droppedPkIfaceDown:count 	0
attr interpolationmode  none
attr source  dropPkIfaceDown
attr title  "packets dropped/interface down, count"
scalar latencyComparativeGeneric.edgeSwitchLeft.mac[4] 	droppedPkIfaceDown:sum(packetBytes) 	0
attr interpolationmode  none
attr source  dropPkIfaceDown
attr title  "packets dropped/interface down, sum(packetBytes)"
scalar latencyComparativeGeneric.edgeSwitchLeft.mac[4] 	rxPkFromHL:count 	1
attr interpolationmode  none
attr source  rxPkFromHL
attr title  "packet bytes from higher layer, count"
scalar latencyComparativeGeneric.edgeSwitchLeft.mac[4] 	rxPkFromHL:sum(packetBytes) 	64
attr interpolationmode  none
attr source  rxPkFromHL
attr title  "packet bytes from higher layer, sum(packetBytes)"
scalar latencyComparativeGeneric.edgeSwitchLeft.mac[4] 	rxPausePkUnits:count 	0
attr interpolationmode  none
attr title  "pause units received, count"
scalar latencyComparativeGeneric.edgeSwitchLeft.mac[4] 	rxPausePkUnits:sum 	0
attr interpolationmode  none
attr title  "pause units received, sum"
scalar latencyComparativeGeneric.edgeSwitchLeft.mac[4] 	txPausePkUnits:count 	0
attr interpolationmode  none
attr title  "pause units sent, count"
scalar latencyComparativeGeneric.edgeSwitchLeft.mac[4] 	txPausePkUnits:sum 	0
attr interpolationmode  none
attr title  "pause units sent, sum"
scalar latencyComparativeGeneric.edgeSwitchLeft.mac[4] 	passedUpPk:count 	0
attr interpolationmode  none
attr source  packetSentToUpper
attr title  "packets passed to higher layer, count"
scalar latencyComparativeGeneric.edgeSwitchLeft.mac[4] 	passedUpPk:sum(packetBytes) 	0
attr interpolationmode  none
attr source  packetSentToUpper
attr title  "packets passed to higher layer, sum(packetBytes)"
scalar latencyComparativeGeneric.edgeSwitchLeft.mac[4] 	rxPkOk:count 	0
attr interpolationmode  none
attr source  rxPkOk
attr title  "packets received OK, count"
scalar latencyComparativeGeneric.edgeSwitchLeft.mac[4] 	rxPkOk:sum(packetBytes) 	0
attr interpolationmode  none
attr source  rxPkOk
attr title  "packets received OK, sum(packetBytes)"
scalar latencyComparativeGeneric.edgeSwitchLeft.mac[4] 	txPk:count 	1
attr interpolationmode  none
attr source  txPk
attr title  "packets transmitted, count"
scalar latencyComparativeGeneric.edgeSwitchLeft.mac[4] 	txPk:sum(packetBytes) 	64
attr interpolationmode  none
attr source  txPk
attr title  "packets transmitted, sum(packetBytes)"
scalar latencyComparativeGeneric.edgeSwitchLeft.mac[5] 	"simulated time" 	1.000084709989
scalar latencyComparativeGeneric.edgeSwitchLeft.mac[5] 	full-duplex 	1
scalar latencyComparativeGeneric.edgeSwitchLeft.mac[5] 	"frames/sec sent" 	0.99991529718617
scalar latencyComparativeGeneric.edgeSwitchLeft.mac[5] 	"frames/sec rcvd" 	0
scalar latencyComparativeGeneric.edgeSwitchLeft.mac[5] 	"bits/sec sent" 	511.95663215932
scalar latencyComparativeGeneric.edgeSwitchLeft.mac[5] 	"bits/sec rcvd" 	0
scalar latencyComparativeGeneric.edgeSwitchLeft.mac[5] 	"rx channel idle (%)" 	100
scalar latencyComparativeGeneric.edgeSwitchLeft.mac[5] 	"rx channel utilization (%)" 	0
scalar latencyComparativeGeneric.edgeSwitchLeft.mac[5] 	"rx channel collision (%)" 	0
scalar latencyComparativeGeneric.edgeSwitchLeft.mac[5] 	collisions 	0
scalar latencyComparativeGeneric.edgeSwitchLeft.mac[5] 	backoffs 	0
scalar latencyComparativeGeneric.edgeSwitchLeft.mac[5] 	"average latency" 	0
scalar latencyComparativeGeneric.edgeSwitchLeft.mac[5] 	"max latency" 	0
scalar latencyComparativeGeneric.edgeSwitchLeft.mac[5] 	"min latency" 	100
scalar latencyComparativeGeneric.edgeSwitchLeft.mac[5] 	"average processing time" 	8.719999e-06
scalar latencyComparativeGeneric.edgeSwitchLeft.mac[5] 	"max processing time" 	8.719999e-06
scalar latencyComparativeGeneric.edgeSwitchLeft.mac[5] 	"min processing time" 	8.719999e-06
scalar latencyComparativeGeneric.edgeSwitchLeft.mac[5] 	"ARP requests rcvd" 	0
scalar latencyComparativeGeneric.edgeSwitchLeft.mac[5] 	backoff:count 	0
attr interpolationmode  none
attr title  "backoff, count"
scalar latencyComparativeGeneric.edgeSwitchLeft.mac[5] 	collision:count 	0
attr interpolationmode  none
attr title  "collision, count"
scalar latencyComparativeGeneric.edgeSwitchLeft.mac[5] 	droppedPkNotForUs:count 	0
attr interpolationmode  none
attr source  dropPkNotForUs
attr title  "packets dropped/not for us, count"
scalar latencyComparativeGeneric.edgeSwitchLeft.mac[5] 	droppedPkNotForUs:sum(packetBytes) 	0
attr interpolationmode  none
attr source  dropPkNotForUs
attr title  "packets dropped/not for us, sum(packetBytes)"
scalar latencyComparativeGeneric.edgeSwitchLeft.mac[5] 	droppedPkBitError:count 	0
attr interpolationmode  none
attr source  dropPkBitError
attr title  "packets dropped/bit error, count"
scalar latencyComparativeGeneric.edgeSwitchLeft.mac[5] 	droppedPkBitError:sum(packetBytes) 	0
attr interpolationmode  none
attr source  dropPkBitError
attr title  "packets dropped/bit error, sum(packetBytes)"
scalar latencyComparativeGeneric.edgeSwitchLeft.mac[5] 	droppedPkIfaceDown:count 	0
attr interpolationmode  none
attr source  dropPkIfaceDown
attr title  "packets dropped/interface down, count"
scalar latencyComparativeGeneric.edgeSwitchLeft.mac[5] 	droppedPkIfaceDown:sum(packetBytes) 	0
attr interpolationmode  none
attr source  dropPkIfaceDown
attr title  "packets dropped/interface down, sum(packetBytes)"
scalar latencyComparativeGeneric.edgeSwitchLeft.mac[5] 	rxPkFromHL:count 	1
attr interpolationmode  none
attr source  rxPkFromHL
attr title  "packet bytes from higher layer, count"
scalar latencyComparativeGeneric.edgeSwitchLeft.mac[5] 	rxPkFromHL:sum(packetBytes) 	64
attr interpolationmode  none
attr source  rxPkFromHL
attr title  "packet bytes from higher layer, sum(packetBytes)"
scalar latencyComparativeGeneric.edgeSwitchLeft.mac[5] 	rxPausePkUnits:count 	0
attr interpolationmode  none
attr title  "pause units received, count"
scalar latencyComparativeGeneric.edgeSwitchLeft.mac[5] 	rxPausePkUnits:sum 	0
attr interpolationmode  none
attr title  "pause units received, sum"
scalar latencyComparativeGeneric.edgeSwitchLeft.mac[5] 	txPausePkUnits:count 	0
attr interpolationmode  none
attr title  "pause units sent, count"
scalar latencyComparativeGeneric.edgeSwitchLeft.mac[5] 	txPausePkUnits:sum 	0
attr interpolationmode  none
attr title  "pause units sent, sum"
scalar latencyComparativeGeneric.edgeSwitchLeft.mac[5] 	passedUpPk:count 	0
attr interpolationmode  none
attr source  packetSentToUpper
attr title  "packets passed to higher layer, count"
scalar latencyComparativeGeneric.edgeSwitchLeft.mac[5] 	passedUpPk:sum(packetBytes) 	0
attr interpolationmode  none
attr source  packetSentToUpper
attr title  "packets passed to higher layer, sum(packetBytes)"
scalar latencyComparativeGeneric.edgeSwitchLeft.mac[5] 	rxPkOk:count 	0
attr interpolationmode  none
attr source  rxPkOk
attr title  "packets received OK, count"
scalar latencyComparativeGeneric.edgeSwitchLeft.mac[5] 	rxPkOk:sum(packetBytes) 	0
attr interpolationmode  none
attr source  rxPkOk
attr title  "packets received OK, sum(packetBytes)"
scalar latencyComparativeGeneric.edgeSwitchLeft.mac[5] 	txPk:count 	1
attr interpolationmode  none
attr source  txPk
attr title  "packets transmitted, count"
scalar latencyComparativeGeneric.edgeSwitchLeft.mac[5] 	txPk:sum(packetBytes) 	64
attr interpolationmode  none
attr source  txPk
attr title  "packets transmitted, sum(packetBytes)"
scalar latencyComparativeGeneric.edgeSwitchLeft.mac[6] 	"simulated time" 	1.000084709989
scalar latencyComparativeGeneric.edgeSwitchLeft.mac[6] 	full-duplex 	1
scalar latencyComparativeGeneric.edgeSwitchLeft.mac[6] 	"frames/sec sent" 	0.99991529718617
scalar latencyComparativeGeneric.edgeSwitchLeft.mac[6] 	"frames/sec rcvd" 	0
scalar latencyComparativeGeneric.edgeSwitchLeft.mac[6] 	"bits/sec sent" 	511.95663215932
scalar latencyComparativeGeneric.edgeSwitchLeft.mac[6] 	"bits/sec rcvd" 	0
scalar latencyComparativeGeneric.edgeSwitchLeft.mac[6] 	"rx channel idle (%)" 	100
scalar latencyComparativeGeneric.edgeSwitchLeft.mac[6] 	"rx channel utilization (%)" 	0
scalar latencyComparativeGeneric.edgeSwitchLeft.mac[6] 	"rx channel collision (%)" 	0
scalar latencyComparativeGeneric.edgeSwitchLeft.mac[6] 	collisions 	0
scalar latencyComparativeGeneric.edgeSwitchLeft.mac[6] 	backoffs 	0
scalar latencyComparativeGeneric.edgeSwitchLeft.mac[6] 	"average latency" 	0
scalar latencyComparativeGeneric.edgeSwitchLeft.mac[6] 	"max latency" 	0
scalar latencyComparativeGeneric.edgeSwitchLeft.mac[6] 	"min latency" 	100
scalar latencyComparativeGeneric.edgeSwitchLeft.mac[6] 	"average processing time" 	8.719999e-06
scalar latencyComparativeGeneric.edgeSwitchLeft.mac[6] 	"max processing time" 	8.719999e-06
scalar latencyComparativeGeneric.edgeSwitchLeft.mac[6] 	"min processing time" 	8.719999e-06
scalar latencyComparativeGeneric.edgeSwitchLeft.mac[6] 	"ARP requests rcvd" 	0
scalar latencyComparativeGeneric.edgeSwitchLeft.mac[6] 	backoff:count 	0
attr interpolationmode  none
attr title  "backoff, count"
scalar latencyComparativeGeneric.edgeSwitchLeft.mac[6] 	collision:count 	0
attr interpolationmode  none
attr title  "collision, count"
scalar latencyComparativeGeneric.edgeSwitchLeft.mac[6] 	droppedPkNotForUs:count 	0
attr interpolationmode  none
attr source  dropPkNotForUs
attr title  "packets dropped/not for us, count"
scalar latencyComparativeGeneric.edgeSwitchLeft.mac[6] 	droppedPkNotForUs:sum(packetBytes) 	0
attr interpolationmode  none
attr source  dropPkNotForUs
attr title  "packets dropped/not for us, sum(packetBytes)"
scalar latencyComparativeGeneric.edgeSwitchLeft.mac[6] 	droppedPkBitError:count 	0
attr interpolationmode  none
attr source  dropPkBitError
attr title  "packets dropped/bit error, count"
scalar latencyComparativeGeneric.edgeSwitchLeft.mac[6] 	droppedPkBitError:sum(packetBytes) 	0
attr interpolationmode  none
attr source  dropPkBitError
attr title  "packets dropped/bit error, sum(packetBytes)"
scalar latencyComparativeGeneric.edgeSwitchLeft.mac[6] 	droppedPkIfaceDown:count 	0
attr interpolationmode  none
attr source  dropPkIfaceDown
attr title  "packets dropped/interface down, count"
scalar latencyComparativeGeneric.edgeSwitchLeft.mac[6] 	droppedPkIfaceDown:sum(packetBytes) 	0
attr interpolationmode  none
attr source  dropPkIfaceDown
attr title  "packets dropped/interface down, sum(packetBytes)"
scalar latencyComparativeGeneric.edgeSwitchLeft.mac[6] 	rxPkFromHL:count 	1
attr interpolationmode  none
attr source  rxPkFromHL
attr title  "packet bytes from higher layer, count"
scalar latencyComparativeGeneric.edgeSwitchLeft.mac[6] 	rxPkFromHL:sum(packetBytes) 	64
attr interpolationmode  none
attr source  rxPkFromHL
attr title  "packet bytes from higher layer, sum(packetBytes)"
scalar latencyComparativeGeneric.edgeSwitchLeft.mac[6] 	rxPausePkUnits:count 	0
attr interpolationmode  none
attr title  "pause units received, count"
scalar latencyComparativeGeneric.edgeSwitchLeft.mac[6] 	rxPausePkUnits:sum 	0
attr interpolationmode  none
attr title  "pause units received, sum"
scalar latencyComparativeGeneric.edgeSwitchLeft.mac[6] 	txPausePkUnits:count 	0
attr interpolationmode  none
attr title  "pause units sent, count"
scalar latencyComparativeGeneric.edgeSwitchLeft.mac[6] 	txPausePkUnits:sum 	0
attr interpolationmode  none
attr title  "pause units sent, sum"
scalar latencyComparativeGeneric.edgeSwitchLeft.mac[6] 	passedUpPk:count 	0
attr interpolationmode  none
attr source  packetSentToUpper
attr title  "packets passed to higher layer, count"
scalar latencyComparativeGeneric.edgeSwitchLeft.mac[6] 	passedUpPk:sum(packetBytes) 	0
attr interpolationmode  none
attr source  packetSentToUpper
attr title  "packets passed to higher layer, sum(packetBytes)"
scalar latencyComparativeGeneric.edgeSwitchLeft.mac[6] 	rxPkOk:count 	0
attr interpolationmode  none
attr source  rxPkOk
attr title  "packets received OK, count"
scalar latencyComparativeGeneric.edgeSwitchLeft.mac[6] 	rxPkOk:sum(packetBytes) 	0
attr interpolationmode  none
attr source  rxPkOk
attr title  "packets received OK, sum(packetBytes)"
scalar latencyComparativeGeneric.edgeSwitchLeft.mac[6] 	txPk:count 	1
attr interpolationmode  none
attr source  txPk
attr title  "packets transmitted, count"
scalar latencyComparativeGeneric.edgeSwitchLeft.mac[6] 	txPk:sum(packetBytes) 	64
attr interpolationmode  none
attr source  txPk
attr title  "packets transmitted, sum(packetBytes)"
scalar latencyComparativeGeneric.edgeSwitchLeft.mac[7] 	"simulated time" 	1.000084709989
scalar latencyComparativeGeneric.edgeSwitchLeft.mac[7] 	full-duplex 	1
scalar latencyComparativeGeneric.edgeSwitchLeft.mac[7] 	"frames/sec sent" 	0.99991529718617
scalar latencyComparativeGeneric.edgeSwitchLeft.mac[7] 	"frames/sec rcvd" 	0
scalar latencyComparativeGeneric.edgeSwitchLeft.mac[7] 	"bits/sec sent" 	511.95663215932
scalar latencyComparativeGeneric.edgeSwitchLeft.mac[7] 	"bits/sec rcvd" 	0
scalar latencyComparativeGeneric.edgeSwitchLeft.mac[7] 	"rx channel idle (%)" 	100
scalar latencyComparativeGeneric.edgeSwitchLeft.mac[7] 	"rx channel utilization (%)" 	0
scalar latencyComparativeGeneric.edgeSwitchLeft.mac[7] 	"rx channel collision (%)" 	0
scalar latencyComparativeGeneric.edgeSwitchLeft.mac[7] 	collisions 	0
scalar latencyComparativeGeneric.edgeSwitchLeft.mac[7] 	backoffs 	0
scalar latencyComparativeGeneric.edgeSwitchLeft.mac[7] 	"average latency" 	0
scalar latencyComparativeGeneric.edgeSwitchLeft.mac[7] 	"max latency" 	0
scalar latencyComparativeGeneric.edgeSwitchLeft.mac[7] 	"min latency" 	100
scalar latencyComparativeGeneric.edgeSwitchLeft.mac[7] 	"average processing time" 	8.719999e-06
scalar latencyComparativeGeneric.edgeSwitchLeft.mac[7] 	"max processing time" 	8.719999e-06
scalar latencyComparativeGeneric.edgeSwitchLeft.mac[7] 	"min processing time" 	8.719999e-06
scalar latencyComparativeGeneric.edgeSwitchLeft.mac[7] 	"ARP requests rcvd" 	0
scalar latencyComparativeGeneric.edgeSwitchLeft.mac[7] 	backoff:count 	0
attr interpolationmode  none
attr title  "backoff, count"
scalar latencyComparativeGeneric.edgeSwitchLeft.mac[7] 	collision:count 	0
attr interpolationmode  none
attr title  "collision, count"
scalar latencyComparativeGeneric.edgeSwitchLeft.mac[7] 	droppedPkNotForUs:count 	0
attr interpolationmode  none
attr source  dropPkNotForUs
attr title  "packets dropped/not for us, count"
scalar latencyComparativeGeneric.edgeSwitchLeft.mac[7] 	droppedPkNotForUs:sum(packetBytes) 	0
attr interpolationmode  none
attr source  dropPkNotForUs
attr title  "packets dropped/not for us, sum(packetBytes)"
scalar latencyComparativeGeneric.edgeSwitchLeft.mac[7] 	droppedPkBitError:count 	0
attr interpolationmode  none
attr source  dropPkBitError
attr title  "packets dropped/bit error, count"
scalar latencyComparativeGeneric.edgeSwitchLeft.mac[7] 	droppedPkBitError:sum(packetBytes) 	0
attr interpolationmode  none
attr source  dropPkBitError
attr title  "packets dropped/bit error, sum(packetBytes)"
scalar latencyComparativeGeneric.edgeSwitchLeft.mac[7] 	droppedPkIfaceDown:count 	0
attr interpolationmode  none
attr source  dropPkIfaceDown
attr title  "packets dropped/interface down, count"
scalar latencyComparativeGeneric.edgeSwitchLeft.mac[7] 	droppedPkIfaceDown:sum(packetBytes) 	0
attr interpolationmode  none
attr source  dropPkIfaceDown
attr title  "packets dropped/interface down, sum(packetBytes)"
scalar latencyComparativeGeneric.edgeSwitchLeft.mac[7] 	rxPkFromHL:count 	1
attr interpolationmode  none
attr source  rxPkFromHL
attr title  "packet bytes from higher layer, count"
scalar latencyComparativeGeneric.edgeSwitchLeft.mac[7] 	rxPkFromHL:sum(packetBytes) 	64
attr interpolationmode  none
attr source  rxPkFromHL
attr title  "packet bytes from higher layer, sum(packetBytes)"
scalar latencyComparativeGeneric.edgeSwitchLeft.mac[7] 	rxPausePkUnits:count 	0
attr interpolationmode  none
attr title  "pause units received, count"
scalar latencyComparativeGeneric.edgeSwitchLeft.mac[7] 	rxPausePkUnits:sum 	0
attr interpolationmode  none
attr title  "pause units received, sum"
scalar latencyComparativeGeneric.edgeSwitchLeft.mac[7] 	txPausePkUnits:count 	0
attr interpolationmode  none
attr title  "pause units sent, count"
scalar latencyComparativeGeneric.edgeSwitchLeft.mac[7] 	txPausePkUnits:sum 	0
attr interpolationmode  none
attr title  "pause units sent, sum"
scalar latencyComparativeGeneric.edgeSwitchLeft.mac[7] 	passedUpPk:count 	0
attr interpolationmode  none
attr source  packetSentToUpper
attr title  "packets passed to higher layer, count"
scalar latencyComparativeGeneric.edgeSwitchLeft.mac[7] 	passedUpPk:sum(packetBytes) 	0
attr interpolationmode  none
attr source  packetSentToUpper
attr title  "packets passed to higher layer, sum(packetBytes)"
scalar latencyComparativeGeneric.edgeSwitchLeft.mac[7] 	rxPkOk:count 	0
attr interpolationmode  none
attr source  rxPkOk
attr title  "packets received OK, count"
scalar latencyComparativeGeneric.edgeSwitchLeft.mac[7] 	rxPkOk:sum(packetBytes) 	0
attr interpolationmode  none
attr source  rxPkOk
attr title  "packets received OK, sum(packetBytes)"
scalar latencyComparativeGeneric.edgeSwitchLeft.mac[7] 	txPk:count 	1
attr interpolationmode  none
attr source  txPk
attr title  "packets transmitted, count"
scalar latencyComparativeGeneric.edgeSwitchLeft.mac[7] 	txPk:sum(packetBytes) 	64
attr interpolationmode  none
attr source  txPk
attr title  "packets transmitted, sum(packetBytes)"
scalar latencyComparativeGeneric.edgeSwitchLeft.mac[8] 	"simulated time" 	1.000084709989
scalar latencyComparativeGeneric.edgeSwitchLeft.mac[8] 	full-duplex 	1
scalar latencyComparativeGeneric.edgeSwitchLeft.mac[8] 	"frames/sec sent" 	0.99991529718617
scalar latencyComparativeGeneric.edgeSwitchLeft.mac[8] 	"frames/sec rcvd" 	0
scalar latencyComparativeGeneric.edgeSwitchLeft.mac[8] 	"bits/sec sent" 	511.95663215932
scalar latencyComparativeGeneric.edgeSwitchLeft.mac[8] 	"bits/sec rcvd" 	0
scalar latencyComparativeGeneric.edgeSwitchLeft.mac[8] 	"rx channel idle (%)" 	100
scalar latencyComparativeGeneric.edgeSwitchLeft.mac[8] 	"rx channel utilization (%)" 	0
scalar latencyComparativeGeneric.edgeSwitchLeft.mac[8] 	"rx channel collision (%)" 	0
scalar latencyComparativeGeneric.edgeSwitchLeft.mac[8] 	collisions 	0
scalar latencyComparativeGeneric.edgeSwitchLeft.mac[8] 	backoffs 	0
scalar latencyComparativeGeneric.edgeSwitchLeft.mac[8] 	"average latency" 	0
scalar latencyComparativeGeneric.edgeSwitchLeft.mac[8] 	"max latency" 	0
scalar latencyComparativeGeneric.edgeSwitchLeft.mac[8] 	"min latency" 	100
scalar latencyComparativeGeneric.edgeSwitchLeft.mac[8] 	"average processing time" 	8.719999e-06
scalar latencyComparativeGeneric.edgeSwitchLeft.mac[8] 	"max processing time" 	8.719999e-06
scalar latencyComparativeGeneric.edgeSwitchLeft.mac[8] 	"min processing time" 	8.719999e-06
scalar latencyComparativeGeneric.edgeSwitchLeft.mac[8] 	"ARP requests rcvd" 	0
scalar latencyComparativeGeneric.edgeSwitchLeft.mac[8] 	backoff:count 	0
attr interpolationmode  none
attr title  "backoff, count"
scalar latencyComparativeGeneric.edgeSwitchLeft.mac[8] 	collision:count 	0
attr interpolationmode  none
attr title  "collision, count"
scalar latencyComparativeGeneric.edgeSwitchLeft.mac[8] 	droppedPkNotForUs:count 	0
attr interpolationmode  none
attr source  dropPkNotForUs
attr title  "packets dropped/not for us, count"
scalar latencyComparativeGeneric.edgeSwitchLeft.mac[8] 	droppedPkNotForUs:sum(packetBytes) 	0
attr interpolationmode  none
attr source  dropPkNotForUs
attr title  "packets dropped/not for us, sum(packetBytes)"
scalar latencyComparativeGeneric.edgeSwitchLeft.mac[8] 	droppedPkBitError:count 	0
attr interpolationmode  none
attr source  dropPkBitError
attr title  "packets dropped/bit error, count"
scalar latencyComparativeGeneric.edgeSwitchLeft.mac[8] 	droppedPkBitError:sum(packetBytes) 	0
attr interpolationmode  none
attr source  dropPkBitError
attr title  "packets dropped/bit error, sum(packetBytes)"
scalar latencyComparativeGeneric.edgeSwitchLeft.mac[8] 	droppedPkIfaceDown:count 	0
attr interpolationmode  none
attr source  dropPkIfaceDown
attr title  "packets dropped/interface down, count"
scalar latencyComparativeGeneric.edgeSwitchLeft.mac[8] 	droppedPkIfaceDown:sum(packetBytes) 	0
attr interpolationmode  none
attr source  dropPkIfaceDown
attr title  "packets dropped/interface down, sum(packetBytes)"
scalar latencyComparativeGeneric.edgeSwitchLeft.mac[8] 	rxPkFromHL:count 	1
attr interpolationmode  none
attr source  rxPkFromHL
attr title  "packet bytes from higher layer, count"
scalar latencyComparativeGeneric.edgeSwitchLeft.mac[8] 	rxPkFromHL:sum(packetBytes) 	64
attr interpolationmode  none
attr source  rxPkFromHL
attr title  "packet bytes from higher layer, sum(packetBytes)"
scalar latencyComparativeGeneric.edgeSwitchLeft.mac[8] 	rxPausePkUnits:count 	0
attr interpolationmode  none
attr title  "pause units received, count"
scalar latencyComparativeGeneric.edgeSwitchLeft.mac[8] 	rxPausePkUnits:sum 	0
attr interpolationmode  none
attr title  "pause units received, sum"
scalar latencyComparativeGeneric.edgeSwitchLeft.mac[8] 	txPausePkUnits:count 	0
attr interpolationmode  none
attr title  "pause units sent, count"
scalar latencyComparativeGeneric.edgeSwitchLeft.mac[8] 	txPausePkUnits:sum 	0
attr interpolationmode  none
attr title  "pause units sent, sum"
scalar latencyComparativeGeneric.edgeSwitchLeft.mac[8] 	passedUpPk:count 	0
attr interpolationmode  none
attr source  packetSentToUpper
attr title  "packets passed to higher layer, count"
scalar latencyComparativeGeneric.edgeSwitchLeft.mac[8] 	passedUpPk:sum(packetBytes) 	0
attr interpolationmode  none
attr source  packetSentToUpper
attr title  "packets passed to higher layer, sum(packetBytes)"
scalar latencyComparativeGeneric.edgeSwitchLeft.mac[8] 	rxPkOk:count 	0
attr interpolationmode  none
attr source  rxPkOk
attr title  "packets received OK, count"
scalar latencyComparativeGeneric.edgeSwitchLeft.mac[8] 	rxPkOk:sum(packetBytes) 	0
attr interpolationmode  none
attr source  rxPkOk
attr title  "packets received OK, sum(packetBytes)"
scalar latencyComparativeGeneric.edgeSwitchLeft.mac[8] 	txPk:count 	1
attr interpolationmode  none
attr source  txPk
attr title  "packets transmitted, count"
scalar latencyComparativeGeneric.edgeSwitchLeft.mac[8] 	txPk:sum(packetBytes) 	64
attr interpolationmode  none
attr source  txPk
attr title  "packets transmitted, sum(packetBytes)"
scalar latencyComparativeGeneric.edgeSwitchLeft.mac[9] 	"simulated time" 	1.000084709989
scalar latencyComparativeGeneric.edgeSwitchLeft.mac[9] 	full-duplex 	1
scalar latencyComparativeGeneric.edgeSwitchLeft.mac[9] 	"frames/sec sent" 	0.99991529718617
scalar latencyComparativeGeneric.edgeSwitchLeft.mac[9] 	"frames/sec rcvd" 	0
scalar latencyComparativeGeneric.edgeSwitchLeft.mac[9] 	"bits/sec sent" 	511.95663215932
scalar latencyComparativeGeneric.edgeSwitchLeft.mac[9] 	"bits/sec rcvd" 	0
scalar latencyComparativeGeneric.edgeSwitchLeft.mac[9] 	"rx channel idle (%)" 	100
scalar latencyComparativeGeneric.edgeSwitchLeft.mac[9] 	"rx channel utilization (%)" 	0
scalar latencyComparativeGeneric.edgeSwitchLeft.mac[9] 	"rx channel collision (%)" 	0
scalar latencyComparativeGeneric.edgeSwitchLeft.mac[9] 	collisions 	0
scalar latencyComparativeGeneric.edgeSwitchLeft.mac[9] 	backoffs 	0
scalar latencyComparativeGeneric.edgeSwitchLeft.mac[9] 	"average latency" 	0
scalar latencyComparativeGeneric.edgeSwitchLeft.mac[9] 	"max latency" 	0
scalar latencyComparativeGeneric.edgeSwitchLeft.mac[9] 	"min latency" 	100
scalar latencyComparativeGeneric.edgeSwitchLeft.mac[9] 	"average processing time" 	8.719999e-06
scalar latencyComparativeGeneric.edgeSwitchLeft.mac[9] 	"max processing time" 	8.719999e-06
scalar latencyComparativeGeneric.edgeSwitchLeft.mac[9] 	"min processing time" 	8.719999e-06
scalar latencyComparativeGeneric.edgeSwitchLeft.mac[9] 	"ARP requests rcvd" 	0
scalar latencyComparativeGeneric.edgeSwitchLeft.mac[9] 	backoff:count 	0
attr interpolationmode  none
attr title  "backoff, count"
scalar latencyComparativeGeneric.edgeSwitchLeft.mac[9] 	collision:count 	0
attr interpolationmode  none
attr title  "collision, count"
scalar latencyComparativeGeneric.edgeSwitchLeft.mac[9] 	droppedPkNotForUs:count 	0
attr interpolationmode  none
attr source  dropPkNotForUs
attr title  "packets dropped/not for us, count"
scalar latencyComparativeGeneric.edgeSwitchLeft.mac[9] 	droppedPkNotForUs:sum(packetBytes) 	0
attr interpolationmode  none
attr source  dropPkNotForUs
attr title  "packets dropped/not for us, sum(packetBytes)"
scalar latencyComparativeGeneric.edgeSwitchLeft.mac[9] 	droppedPkBitError:count 	0
attr interpolationmode  none
attr source  dropPkBitError
attr title  "packets dropped/bit error, count"
scalar latencyComparativeGeneric.edgeSwitchLeft.mac[9] 	droppedPkBitError:sum(packetBytes) 	0
attr interpolationmode  none
attr source  dropPkBitError
attr title  "packets dropped/bit error, sum(packetBytes)"
scalar latencyComparativeGeneric.edgeSwitchLeft.mac[9] 	droppedPkIfaceDown:count 	0
attr interpolationmode  none
attr source  dropPkIfaceDown
attr title  "packets dropped/interface down, count"
scalar latencyComparativeGeneric.edgeSwitchLeft.mac[9] 	droppedPkIfaceDown:sum(packetBytes) 	0
attr interpolationmode  none
attr source  dropPkIfaceDown
attr title  "packets dropped/interface down, sum(packetBytes)"
scalar latencyComparativeGeneric.edgeSwitchLeft.mac[9] 	rxPkFromHL:count 	1
attr interpolationmode  none
attr source  rxPkFromHL
attr title  "packet bytes from higher layer, count"
scalar latencyComparativeGeneric.edgeSwitchLeft.mac[9] 	rxPkFromHL:sum(packetBytes) 	64
attr interpolationmode  none
attr source  rxPkFromHL
attr title  "packet bytes from higher layer, sum(packetBytes)"
scalar latencyComparativeGeneric.edgeSwitchLeft.mac[9] 	rxPausePkUnits:count 	0
attr interpolationmode  none
attr title  "pause units received, count"
scalar latencyComparativeGeneric.edgeSwitchLeft.mac[9] 	rxPausePkUnits:sum 	0
attr interpolationmode  none
attr title  "pause units received, sum"
scalar latencyComparativeGeneric.edgeSwitchLeft.mac[9] 	txPausePkUnits:count 	0
attr interpolationmode  none
attr title  "pause units sent, count"
scalar latencyComparativeGeneric.edgeSwitchLeft.mac[9] 	txPausePkUnits:sum 	0
attr interpolationmode  none
attr title  "pause units sent, sum"
scalar latencyComparativeGeneric.edgeSwitchLeft.mac[9] 	passedUpPk:count 	0
attr interpolationmode  none
attr source  packetSentToUpper
attr title  "packets passed to higher layer, count"
scalar latencyComparativeGeneric.edgeSwitchLeft.mac[9] 	passedUpPk:sum(packetBytes) 	0
attr interpolationmode  none
attr source  packetSentToUpper
attr title  "packets passed to higher layer, sum(packetBytes)"
scalar latencyComparativeGeneric.edgeSwitchLeft.mac[9] 	rxPkOk:count 	0
attr interpolationmode  none
attr source  rxPkOk
attr title  "packets received OK, count"
scalar latencyComparativeGeneric.edgeSwitchLeft.mac[9] 	rxPkOk:sum(packetBytes) 	0
attr interpolationmode  none
attr source  rxPkOk
attr title  "packets received OK, sum(packetBytes)"
scalar latencyComparativeGeneric.edgeSwitchLeft.mac[9] 	txPk:count 	1
attr interpolationmode  none
attr source  txPk
attr title  "packets transmitted, count"
scalar latencyComparativeGeneric.edgeSwitchLeft.mac[9] 	txPk:sum(packetBytes) 	64
attr interpolationmode  none
attr source  txPk
attr title  "packets transmitted, sum(packetBytes)"
scalar latencyComparativeGeneric.edgeSwitchLeft.mac[10] 	"simulated time" 	1.000084709989
scalar latencyComparativeGeneric.edgeSwitchLeft.mac[10] 	full-duplex 	1
scalar latencyComparativeGeneric.edgeSwitchLeft.mac[10] 	"frames/sec sent" 	0.99991529718617
scalar latencyComparativeGeneric.edgeSwitchLeft.mac[10] 	"frames/sec rcvd" 	0
scalar latencyComparativeGeneric.edgeSwitchLeft.mac[10] 	"bits/sec sent" 	511.95663215932
scalar latencyComparativeGeneric.edgeSwitchLeft.mac[10] 	"bits/sec rcvd" 	0
scalar latencyComparativeGeneric.edgeSwitchLeft.mac[10] 	"rx channel idle (%)" 	100
scalar latencyComparativeGeneric.edgeSwitchLeft.mac[10] 	"rx channel utilization (%)" 	0
scalar latencyComparativeGeneric.edgeSwitchLeft.mac[10] 	"rx channel collision (%)" 	0
scalar latencyComparativeGeneric.edgeSwitchLeft.mac[10] 	collisions 	0
scalar latencyComparativeGeneric.edgeSwitchLeft.mac[10] 	backoffs 	0
scalar latencyComparativeGeneric.edgeSwitchLeft.mac[10] 	"average latency" 	0
scalar latencyComparativeGeneric.edgeSwitchLeft.mac[10] 	"max latency" 	0
scalar latencyComparativeGeneric.edgeSwitchLeft.mac[10] 	"min latency" 	100
scalar latencyComparativeGeneric.edgeSwitchLeft.mac[10] 	"average processing time" 	8.719999e-06
scalar latencyComparativeGeneric.edgeSwitchLeft.mac[10] 	"max processing time" 	8.719999e-06
scalar latencyComparativeGeneric.edgeSwitchLeft.mac[10] 	"min processing time" 	8.719999e-06
scalar latencyComparativeGeneric.edgeSwitchLeft.mac[10] 	"ARP requests rcvd" 	0
scalar latencyComparativeGeneric.edgeSwitchLeft.mac[10] 	backoff:count 	0
attr interpolationmode  none
attr title  "backoff, count"
scalar latencyComparativeGeneric.edgeSwitchLeft.mac[10] 	collision:count 	0
attr interpolationmode  none
attr title  "collision, count"
scalar latencyComparativeGeneric.edgeSwitchLeft.mac[10] 	droppedPkNotForUs:count 	0
attr interpolationmode  none
attr source  dropPkNotForUs
attr title  "packets dropped/not for us, count"
scalar latencyComparativeGeneric.edgeSwitchLeft.mac[10] 	droppedPkNotForUs:sum(packetBytes) 	0
attr interpolationmode  none
attr source  dropPkNotForUs
attr title  "packets dropped/not for us, sum(packetBytes)"
scalar latencyComparativeGeneric.edgeSwitchLeft.mac[10] 	droppedPkBitError:count 	0
attr interpolationmode  none
attr source  dropPkBitError
attr title  "packets dropped/bit error, count"
scalar latencyComparativeGeneric.edgeSwitchLeft.mac[10] 	droppedPkBitError:sum(packetBytes) 	0
attr interpolationmode  none
attr source  dropPkBitError
attr title  "packets dropped/bit error, sum(packetBytes)"
scalar latencyComparativeGeneric.edgeSwitchLeft.mac[10] 	droppedPkIfaceDown:count 	0
attr interpolationmode  none
attr source  dropPkIfaceDown
attr title  "packets dropped/interface down, count"
scalar latencyComparativeGeneric.edgeSwitchLeft.mac[10] 	droppedPkIfaceDown:sum(packetBytes) 	0
attr interpolationmode  none
attr source  dropPkIfaceDown
attr title  "packets dropped/interface down, sum(packetBytes)"
scalar latencyComparativeGeneric.edgeSwitchLeft.mac[10] 	rxPkFromHL:count 	1
attr interpolationmode  none
attr source  rxPkFromHL
attr title  "packet bytes from higher layer, count"
scalar latencyComparativeGeneric.edgeSwitchLeft.mac[10] 	rxPkFromHL:sum(packetBytes) 	64
attr interpolationmode  none
attr source  rxPkFromHL
attr title  "packet bytes from higher layer, sum(packetBytes)"
scalar latencyComparativeGeneric.edgeSwitchLeft.mac[10] 	rxPausePkUnits:count 	0
attr interpolationmode  none
attr title  "pause units received, count"
scalar latencyComparativeGeneric.edgeSwitchLeft.mac[10] 	rxPausePkUnits:sum 	0
attr interpolationmode  none
attr title  "pause units received, sum"
scalar latencyComparativeGeneric.edgeSwitchLeft.mac[10] 	txPausePkUnits:count 	0
attr interpolationmode  none
attr title  "pause units sent, count"
scalar latencyComparativeGeneric.edgeSwitchLeft.mac[10] 	txPausePkUnits:sum 	0
attr interpolationmode  none
attr title  "pause units sent, sum"
scalar latencyComparativeGeneric.edgeSwitchLeft.mac[10] 	passedUpPk:count 	0
attr interpolationmode  none
attr source  packetSentToUpper
attr title  "packets passed to higher layer, count"
scalar latencyComparativeGeneric.edgeSwitchLeft.mac[10] 	passedUpPk:sum(packetBytes) 	0
attr interpolationmode  none
attr source  packetSentToUpper
attr title  "packets passed to higher layer, sum(packetBytes)"
scalar latencyComparativeGeneric.edgeSwitchLeft.mac[10] 	rxPkOk:count 	0
attr interpolationmode  none
attr source  rxPkOk
attr title  "packets received OK, count"
scalar latencyComparativeGeneric.edgeSwitchLeft.mac[10] 	rxPkOk:sum(packetBytes) 	0
attr interpolationmode  none
attr source  rxPkOk
attr title  "packets received OK, sum(packetBytes)"
scalar latencyComparativeGeneric.edgeSwitchLeft.mac[10] 	txPk:count 	1
attr interpolationmode  none
attr source  txPk
attr title  "packets transmitted, count"
scalar latencyComparativeGeneric.edgeSwitchLeft.mac[10] 	txPk:sum(packetBytes) 	64
attr interpolationmode  none
attr source  txPk
attr title  "packets transmitted, sum(packetBytes)"
scalar latencyComparativeGeneric.edgeSwitchLeft.mac[11] 	"simulated time" 	1.000084709989
scalar latencyComparativeGeneric.edgeSwitchLeft.mac[11] 	full-duplex 	1
scalar latencyComparativeGeneric.edgeSwitchLeft.mac[11] 	"frames/sec sent" 	0.99991529718617
scalar latencyComparativeGeneric.edgeSwitchLeft.mac[11] 	"frames/sec rcvd" 	0
scalar latencyComparativeGeneric.edgeSwitchLeft.mac[11] 	"bits/sec sent" 	511.95663215932
scalar latencyComparativeGeneric.edgeSwitchLeft.mac[11] 	"bits/sec rcvd" 	0
scalar latencyComparativeGeneric.edgeSwitchLeft.mac[11] 	"rx channel idle (%)" 	100
scalar latencyComparativeGeneric.edgeSwitchLeft.mac[11] 	"rx channel utilization (%)" 	0
scalar latencyComparativeGeneric.edgeSwitchLeft.mac[11] 	"rx channel collision (%)" 	0
scalar latencyComparativeGeneric.edgeSwitchLeft.mac[11] 	collisions 	0
scalar latencyComparativeGeneric.edgeSwitchLeft.mac[11] 	backoffs 	0
scalar latencyComparativeGeneric.edgeSwitchLeft.mac[11] 	"average latency" 	0
scalar latencyComparativeGeneric.edgeSwitchLeft.mac[11] 	"max latency" 	0
scalar latencyComparativeGeneric.edgeSwitchLeft.mac[11] 	"min latency" 	100
scalar latencyComparativeGeneric.edgeSwitchLeft.mac[11] 	"average processing time" 	8.719999e-06
scalar latencyComparativeGeneric.edgeSwitchLeft.mac[11] 	"max processing time" 	8.719999e-06
scalar latencyComparativeGeneric.edgeSwitchLeft.mac[11] 	"min processing time" 	8.719999e-06
scalar latencyComparativeGeneric.edgeSwitchLeft.mac[11] 	"ARP requests rcvd" 	0
scalar latencyComparativeGeneric.edgeSwitchLeft.mac[11] 	backoff:count 	0
attr interpolationmode  none
attr title  "backoff, count"
scalar latencyComparativeGeneric.edgeSwitchLeft.mac[11] 	collision:count 	0
attr interpolationmode  none
attr title  "collision, count"
scalar latencyComparativeGeneric.edgeSwitchLeft.mac[11] 	droppedPkNotForUs:count 	0
attr interpolationmode  none
attr source  dropPkNotForUs
attr title  "packets dropped/not for us, count"
scalar latencyComparativeGeneric.edgeSwitchLeft.mac[11] 	droppedPkNotForUs:sum(packetBytes) 	0
attr interpolationmode  none
attr source  dropPkNotForUs
attr title  "packets dropped/not for us, sum(packetBytes)"
scalar latencyComparativeGeneric.edgeSwitchLeft.mac[11] 	droppedPkBitError:count 	0
attr interpolationmode  none
attr source  dropPkBitError
attr title  "packets dropped/bit error, count"
scalar latencyComparativeGeneric.edgeSwitchLeft.mac[11] 	droppedPkBitError:sum(packetBytes) 	0
attr interpolationmode  none
attr source  dropPkBitError
attr title  "packets dropped/bit error, sum(packetBytes)"
scalar latencyComparativeGeneric.edgeSwitchLeft.mac[11] 	droppedPkIfaceDown:count 	0
attr interpolationmode  none
attr source  dropPkIfaceDown
attr title  "packets dropped/interface down, count"
scalar latencyComparativeGeneric.edgeSwitchLeft.mac[11] 	droppedPkIfaceDown:sum(packetBytes) 	0
attr interpolationmode  none
attr source  dropPkIfaceDown
attr title  "packets dropped/interface down, sum(packetBytes)"
scalar latencyComparativeGeneric.edgeSwitchLeft.mac[11] 	rxPkFromHL:count 	1
attr interpolationmode  none
attr source  rxPkFromHL
attr title  "packet bytes from higher layer, count"
scalar latencyComparativeGeneric.edgeSwitchLeft.mac[11] 	rxPkFromHL:sum(packetBytes) 	64
attr interpolationmode  none
attr source  rxPkFromHL
attr title  "packet bytes from higher layer, sum(packetBytes)"
scalar latencyComparativeGeneric.edgeSwitchLeft.mac[11] 	rxPausePkUnits:count 	0
attr interpolationmode  none
attr title  "pause units received, count"
scalar latencyComparativeGeneric.edgeSwitchLeft.mac[11] 	rxPausePkUnits:sum 	0
attr interpolationmode  none
attr title  "pause units received, sum"
scalar latencyComparativeGeneric.edgeSwitchLeft.mac[11] 	txPausePkUnits:count 	0
attr interpolationmode  none
attr title  "pause units sent, count"
scalar latencyComparativeGeneric.edgeSwitchLeft.mac[11] 	txPausePkUnits:sum 	0
attr interpolationmode  none
attr title  "pause units sent, sum"
scalar latencyComparativeGeneric.edgeSwitchLeft.mac[11] 	passedUpPk:count 	0
attr interpolationmode  none
attr source  packetSentToUpper
attr title  "packets passed to higher layer, count"
scalar latencyComparativeGeneric.edgeSwitchLeft.mac[11] 	passedUpPk:sum(packetBytes) 	0
attr interpolationmode  none
attr source  packetSentToUpper
attr title  "packets passed to higher layer, sum(packetBytes)"
scalar latencyComparativeGeneric.edgeSwitchLeft.mac[11] 	rxPkOk:count 	0
attr interpolationmode  none
attr source  rxPkOk
attr title  "packets received OK, count"
scalar latencyComparativeGeneric.edgeSwitchLeft.mac[11] 	rxPkOk:sum(packetBytes) 	0
attr interpolationmode  none
attr source  rxPkOk
attr title  "packets received OK, sum(packetBytes)"
scalar latencyComparativeGeneric.edgeSwitchLeft.mac[11] 	txPk:count 	1
attr interpolationmode  none
attr source  txPk
attr title  "packets transmitted, count"
scalar latencyComparativeGeneric.edgeSwitchLeft.mac[11] 	txPk:sum(packetBytes) 	64
attr interpolationmode  none
attr source  txPk
attr title  "packets transmitted, sum(packetBytes)"
scalar latencyComparativeGeneric.edgeSwitchLeft.mac[12] 	"simulated time" 	1.000084709989
scalar latencyComparativeGeneric.edgeSwitchLeft.mac[12] 	full-duplex 	1
scalar latencyComparativeGeneric.edgeSwitchLeft.mac[12] 	"frames/sec sent" 	0.99991529718617
scalar latencyComparativeGeneric.edgeSwitchLeft.mac[12] 	"frames/sec rcvd" 	0
scalar latencyComparativeGeneric.edgeSwitchLeft.mac[12] 	"bits/sec sent" 	511.95663215932
scalar latencyComparativeGeneric.edgeSwitchLeft.mac[12] 	"bits/sec rcvd" 	0
scalar latencyComparativeGeneric.edgeSwitchLeft.mac[12] 	"rx channel idle (%)" 	100
scalar latencyComparativeGeneric.edgeSwitchLeft.mac[12] 	"rx channel utilization (%)" 	0
scalar latencyComparativeGeneric.edgeSwitchLeft.mac[12] 	"rx channel collision (%)" 	0
scalar latencyComparativeGeneric.edgeSwitchLeft.mac[12] 	collisions 	0
scalar latencyComparativeGeneric.edgeSwitchLeft.mac[12] 	backoffs 	0
scalar latencyComparativeGeneric.edgeSwitchLeft.mac[12] 	"average latency" 	0
scalar latencyComparativeGeneric.edgeSwitchLeft.mac[12] 	"max latency" 	0
scalar latencyComparativeGeneric.edgeSwitchLeft.mac[12] 	"min latency" 	100
scalar latencyComparativeGeneric.edgeSwitchLeft.mac[12] 	"average processing time" 	8.719999e-06
scalar latencyComparativeGeneric.edgeSwitchLeft.mac[12] 	"max processing time" 	8.719999e-06
scalar latencyComparativeGeneric.edgeSwitchLeft.mac[12] 	"min processing time" 	8.719999e-06
scalar latencyComparativeGeneric.edgeSwitchLeft.mac[12] 	"ARP requests rcvd" 	0
scalar latencyComparativeGeneric.edgeSwitchLeft.mac[12] 	backoff:count 	0
attr interpolationmode  none
attr title  "backoff, count"
scalar latencyComparativeGeneric.edgeSwitchLeft.mac[12] 	collision:count 	0
attr interpolationmode  none
attr title  "collision, count"
scalar latencyComparativeGeneric.edgeSwitchLeft.mac[12] 	droppedPkNotForUs:count 	0
attr interpolationmode  none
attr source  dropPkNotForUs
attr title  "packets dropped/not for us, count"
scalar latencyComparativeGeneric.edgeSwitchLeft.mac[12] 	droppedPkNotForUs:sum(packetBytes) 	0
attr interpolationmode  none
attr source  dropPkNotForUs
attr title  "packets dropped/not for us, sum(packetBytes)"
scalar latencyComparativeGeneric.edgeSwitchLeft.mac[12] 	droppedPkBitError:count 	0
attr interpolationmode  none
attr source  dropPkBitError
attr title  "packets dropped/bit error, count"
scalar latencyComparativeGeneric.edgeSwitchLeft.mac[12] 	droppedPkBitError:sum(packetBytes) 	0
attr interpolationmode  none
attr source  dropPkBitError
attr title  "packets dropped/bit error, sum(packetBytes)"
scalar latencyComparativeGeneric.edgeSwitchLeft.mac[12] 	droppedPkIfaceDown:count 	0
attr interpolationmode  none
attr source  dropPkIfaceDown
attr title  "packets dropped/interface down, count"
scalar latencyComparativeGeneric.edgeSwitchLeft.mac[12] 	droppedPkIfaceDown:sum(packetBytes) 	0
attr interpolationmode  none
attr source  dropPkIfaceDown
attr title  "packets dropped/interface down, sum(packetBytes)"
scalar latencyComparativeGeneric.edgeSwitchLeft.mac[12] 	rxPkFromHL:count 	1
attr interpolationmode  none
attr source  rxPkFromHL
attr title  "packet bytes from higher layer, count"
scalar latencyComparativeGeneric.edgeSwitchLeft.mac[12] 	rxPkFromHL:sum(packetBytes) 	64
attr interpolationmode  none
attr source  rxPkFromHL
attr title  "packet bytes from higher layer, sum(packetBytes)"
scalar latencyComparativeGeneric.edgeSwitchLeft.mac[12] 	rxPausePkUnits:count 	0
attr interpolationmode  none
attr title  "pause units received, count"
scalar latencyComparativeGeneric.edgeSwitchLeft.mac[12] 	rxPausePkUnits:sum 	0
attr interpolationmode  none
attr title  "pause units received, sum"
scalar latencyComparativeGeneric.edgeSwitchLeft.mac[12] 	txPausePkUnits:count 	0
attr interpolationmode  none
attr title  "pause units sent, count"
scalar latencyComparativeGeneric.edgeSwitchLeft.mac[12] 	txPausePkUnits:sum 	0
attr interpolationmode  none
attr title  "pause units sent, sum"
scalar latencyComparativeGeneric.edgeSwitchLeft.mac[12] 	passedUpPk:count 	0
attr interpolationmode  none
attr source  packetSentToUpper
attr title  "packets passed to higher layer, count"
scalar latencyComparativeGeneric.edgeSwitchLeft.mac[12] 	passedUpPk:sum(packetBytes) 	0
attr interpolationmode  none
attr source  packetSentToUpper
attr title  "packets passed to higher layer, sum(packetBytes)"
scalar latencyComparativeGeneric.edgeSwitchLeft.mac[12] 	rxPkOk:count 	0
attr interpolationmode  none
attr source  rxPkOk
attr title  "packets received OK, count"
scalar latencyComparativeGeneric.edgeSwitchLeft.mac[12] 	rxPkOk:sum(packetBytes) 	0
attr interpolationmode  none
attr source  rxPkOk
attr title  "packets received OK, sum(packetBytes)"
scalar latencyComparativeGeneric.edgeSwitchLeft.mac[12] 	txPk:count 	1
attr interpolationmode  none
attr source  txPk
attr title  "packets transmitted, count"
scalar latencyComparativeGeneric.edgeSwitchLeft.mac[12] 	txPk:sum(packetBytes) 	64
attr interpolationmode  none
attr source  txPk
attr title  "packets transmitted, sum(packetBytes)"
scalar latencyComparativeGeneric.edgeSwitchLeft.mac[13] 	"simulated time" 	1.000084709989
scalar latencyComparativeGeneric.edgeSwitchLeft.mac[13] 	full-duplex 	1
scalar latencyComparativeGeneric.edgeSwitchLeft.mac[13] 	"frames/sec sent" 	0.99991529718617
scalar latencyComparativeGeneric.edgeSwitchLeft.mac[13] 	"frames/sec rcvd" 	0
scalar latencyComparativeGeneric.edgeSwitchLeft.mac[13] 	"bits/sec sent" 	511.95663215932
scalar latencyComparativeGeneric.edgeSwitchLeft.mac[13] 	"bits/sec rcvd" 	0
scalar latencyComparativeGeneric.edgeSwitchLeft.mac[13] 	"rx channel idle (%)" 	100
scalar latencyComparativeGeneric.edgeSwitchLeft.mac[13] 	"rx channel utilization (%)" 	0
scalar latencyComparativeGeneric.edgeSwitchLeft.mac[13] 	"rx channel collision (%)" 	0
scalar latencyComparativeGeneric.edgeSwitchLeft.mac[13] 	collisions 	0
scalar latencyComparativeGeneric.edgeSwitchLeft.mac[13] 	backoffs 	0
scalar latencyComparativeGeneric.edgeSwitchLeft.mac[13] 	"average latency" 	0
scalar latencyComparativeGeneric.edgeSwitchLeft.mac[13] 	"max latency" 	0
scalar latencyComparativeGeneric.edgeSwitchLeft.mac[13] 	"min latency" 	100
scalar latencyComparativeGeneric.edgeSwitchLeft.mac[13] 	"average processing time" 	8.719999e-06
scalar latencyComparativeGeneric.edgeSwitchLeft.mac[13] 	"max processing time" 	8.719999e-06
scalar latencyComparativeGeneric.edgeSwitchLeft.mac[13] 	"min processing time" 	8.719999e-06
scalar latencyComparativeGeneric.edgeSwitchLeft.mac[13] 	"ARP requests rcvd" 	0
scalar latencyComparativeGeneric.edgeSwitchLeft.mac[13] 	backoff:count 	0
attr interpolationmode  none
attr title  "backoff, count"
scalar latencyComparativeGeneric.edgeSwitchLeft.mac[13] 	collision:count 	0
attr interpolationmode  none
attr title  "collision, count"
scalar latencyComparativeGeneric.edgeSwitchLeft.mac[13] 	droppedPkNotForUs:count 	0
attr interpolationmode  none
attr source  dropPkNotForUs
attr title  "packets dropped/not for us, count"
scalar latencyComparativeGeneric.edgeSwitchLeft.mac[13] 	droppedPkNotForUs:sum(packetBytes) 	0
attr interpolationmode  none
attr source  dropPkNotForUs
attr title  "packets dropped/not for us, sum(packetBytes)"
scalar latencyComparativeGeneric.edgeSwitchLeft.mac[13] 	droppedPkBitError:count 	0
attr interpolationmode  none
attr source  dropPkBitError
attr title  "packets dropped/bit error, count"
scalar latencyComparativeGeneric.edgeSwitchLeft.mac[13] 	droppedPkBitError:sum(packetBytes) 	0
attr interpolationmode  none
attr source  dropPkBitError
attr title  "packets dropped/bit error, sum(packetBytes)"
scalar latencyComparativeGeneric.edgeSwitchLeft.mac[13] 	droppedPkIfaceDown:count 	0
attr interpolationmode  none
attr source  dropPkIfaceDown
attr title  "packets dropped/interface down, count"
scalar latencyComparativeGeneric.edgeSwitchLeft.mac[13] 	droppedPkIfaceDown:sum(packetBytes) 	0
attr interpolationmode  none
attr source  dropPkIfaceDown
attr title  "packets dropped/interface down, sum(packetBytes)"
scalar latencyComparativeGeneric.edgeSwitchLeft.mac[13] 	rxPkFromHL:count 	1
attr interpolationmode  none
attr source  rxPkFromHL
attr title  "packet bytes from higher layer, count"
scalar latencyComparativeGeneric.edgeSwitchLeft.mac[13] 	rxPkFromHL:sum(packetBytes) 	64
attr interpolationmode  none
attr source  rxPkFromHL
attr title  "packet bytes from higher layer, sum(packetBytes)"
scalar latencyComparativeGeneric.edgeSwitchLeft.mac[13] 	rxPausePkUnits:count 	0
attr interpolationmode  none
attr title  "pause units received, count"
scalar latencyComparativeGeneric.edgeSwitchLeft.mac[13] 	rxPausePkUnits:sum 	0
attr interpolationmode  none
attr title  "pause units received, sum"
scalar latencyComparativeGeneric.edgeSwitchLeft.mac[13] 	txPausePkUnits:count 	0
attr interpolationmode  none
attr title  "pause units sent, count"
scalar latencyComparativeGeneric.edgeSwitchLeft.mac[13] 	txPausePkUnits:sum 	0
attr interpolationmode  none
attr title  "pause units sent, sum"
scalar latencyComparativeGeneric.edgeSwitchLeft.mac[13] 	passedUpPk:count 	0
attr interpolationmode  none
attr source  packetSentToUpper
attr title  "packets passed to higher layer, count"
scalar latencyComparativeGeneric.edgeSwitchLeft.mac[13] 	passedUpPk:sum(packetBytes) 	0
attr interpolationmode  none
attr source  packetSentToUpper
attr title  "packets passed to higher layer, sum(packetBytes)"
scalar latencyComparativeGeneric.edgeSwitchLeft.mac[13] 	rxPkOk:count 	0
attr interpolationmode  none
attr source  rxPkOk
attr title  "packets received OK, count"
scalar latencyComparativeGeneric.edgeSwitchLeft.mac[13] 	rxPkOk:sum(packetBytes) 	0
attr interpolationmode  none
attr source  rxPkOk
attr title  "packets received OK, sum(packetBytes)"
scalar latencyComparativeGeneric.edgeSwitchLeft.mac[13] 	txPk:count 	1
attr interpolationmode  none
attr source  txPk
attr title  "packets transmitted, count"
scalar latencyComparativeGeneric.edgeSwitchLeft.mac[13] 	txPk:sum(packetBytes) 	64
attr interpolationmode  none
attr source  txPk
attr title  "packets transmitted, sum(packetBytes)"
scalar latencyComparativeGeneric.edgeSwitchLeft.mac[14] 	"simulated time" 	1.000084709989
scalar latencyComparativeGeneric.edgeSwitchLeft.mac[14] 	full-duplex 	1
scalar latencyComparativeGeneric.edgeSwitchLeft.mac[14] 	"frames/sec sent" 	0.99991529718617
scalar latencyComparativeGeneric.edgeSwitchLeft.mac[14] 	"frames/sec rcvd" 	0
scalar latencyComparativeGeneric.edgeSwitchLeft.mac[14] 	"bits/sec sent" 	511.95663215932
scalar latencyComparativeGeneric.edgeSwitchLeft.mac[14] 	"bits/sec rcvd" 	0
scalar latencyComparativeGeneric.edgeSwitchLeft.mac[14] 	"rx channel idle (%)" 	100
scalar latencyComparativeGeneric.edgeSwitchLeft.mac[14] 	"rx channel utilization (%)" 	0
scalar latencyComparativeGeneric.edgeSwitchLeft.mac[14] 	"rx channel collision (%)" 	0
scalar latencyComparativeGeneric.edgeSwitchLeft.mac[14] 	collisions 	0
scalar latencyComparativeGeneric.edgeSwitchLeft.mac[14] 	backoffs 	0
scalar latencyComparativeGeneric.edgeSwitchLeft.mac[14] 	"average latency" 	0
scalar latencyComparativeGeneric.edgeSwitchLeft.mac[14] 	"max latency" 	0
scalar latencyComparativeGeneric.edgeSwitchLeft.mac[14] 	"min latency" 	100
scalar latencyComparativeGeneric.edgeSwitchLeft.mac[14] 	"average processing time" 	8.719999e-06
scalar latencyComparativeGeneric.edgeSwitchLeft.mac[14] 	"max processing time" 	8.719999e-06
scalar latencyComparativeGeneric.edgeSwitchLeft.mac[14] 	"min processing time" 	8.719999e-06
scalar latencyComparativeGeneric.edgeSwitchLeft.mac[14] 	"ARP requests rcvd" 	0
scalar latencyComparativeGeneric.edgeSwitchLeft.mac[14] 	backoff:count 	0
attr interpolationmode  none
attr title  "backoff, count"
scalar latencyComparativeGeneric.edgeSwitchLeft.mac[14] 	collision:count 	0
attr interpolationmode  none
attr title  "collision, count"
scalar latencyComparativeGeneric.edgeSwitchLeft.mac[14] 	droppedPkNotForUs:count 	0
attr interpolationmode  none
attr source  dropPkNotForUs
attr title  "packets dropped/not for us, count"
scalar latencyComparativeGeneric.edgeSwitchLeft.mac[14] 	droppedPkNotForUs:sum(packetBytes) 	0
attr interpolationmode  none
attr source  dropPkNotForUs
attr title  "packets dropped/not for us, sum(packetBytes)"
scalar latencyComparativeGeneric.edgeSwitchLeft.mac[14] 	droppedPkBitError:count 	0
attr interpolationmode  none
attr source  dropPkBitError
attr title  "packets dropped/bit error, count"
scalar latencyComparativeGeneric.edgeSwitchLeft.mac[14] 	droppedPkBitError:sum(packetBytes) 	0
attr interpolationmode  none
attr source  dropPkBitError
attr title  "packets dropped/bit error, sum(packetBytes)"
scalar latencyComparativeGeneric.edgeSwitchLeft.mac[14] 	droppedPkIfaceDown:count 	0
attr interpolationmode  none
attr source  dropPkIfaceDown
attr title  "packets dropped/interface down, count"
scalar latencyComparativeGeneric.edgeSwitchLeft.mac[14] 	droppedPkIfaceDown:sum(packetBytes) 	0
attr interpolationmode  none
attr source  dropPkIfaceDown
attr title  "packets dropped/interface down, sum(packetBytes)"
scalar latencyComparativeGeneric.edgeSwitchLeft.mac[14] 	rxPkFromHL:count 	1
attr interpolationmode  none
attr source  rxPkFromHL
attr title  "packet bytes from higher layer, count"
scalar latencyComparativeGeneric.edgeSwitchLeft.mac[14] 	rxPkFromHL:sum(packetBytes) 	64
attr interpolationmode  none
attr source  rxPkFromHL
attr title  "packet bytes from higher layer, sum(packetBytes)"
scalar latencyComparativeGeneric.edgeSwitchLeft.mac[14] 	rxPausePkUnits:count 	0
attr interpolationmode  none
attr title  "pause units received, count"
scalar latencyComparativeGeneric.edgeSwitchLeft.mac[14] 	rxPausePkUnits:sum 	0
attr interpolationmode  none
attr title  "pause units received, sum"
scalar latencyComparativeGeneric.edgeSwitchLeft.mac[14] 	txPausePkUnits:count 	0
attr interpolationmode  none
attr title  "pause units sent, count"
scalar latencyComparativeGeneric.edgeSwitchLeft.mac[14] 	txPausePkUnits:sum 	0
attr interpolationmode  none
attr title  "pause units sent, sum"
scalar latencyComparativeGeneric.edgeSwitchLeft.mac[14] 	passedUpPk:count 	0
attr interpolationmode  none
attr source  packetSentToUpper
attr title  "packets passed to higher layer, count"
scalar latencyComparativeGeneric.edgeSwitchLeft.mac[14] 	passedUpPk:sum(packetBytes) 	0
attr interpolationmode  none
attr source  packetSentToUpper
attr title  "packets passed to higher layer, sum(packetBytes)"
scalar latencyComparativeGeneric.edgeSwitchLeft.mac[14] 	rxPkOk:count 	0
attr interpolationmode  none
attr source  rxPkOk
attr title  "packets received OK, count"
scalar latencyComparativeGeneric.edgeSwitchLeft.mac[14] 	rxPkOk:sum(packetBytes) 	0
attr interpolationmode  none
attr source  rxPkOk
attr title  "packets received OK, sum(packetBytes)"
scalar latencyComparativeGeneric.edgeSwitchLeft.mac[14] 	txPk:count 	1
attr interpolationmode  none
attr source  txPk
attr title  "packets transmitted, count"
scalar latencyComparativeGeneric.edgeSwitchLeft.mac[14] 	txPk:sum(packetBytes) 	64
attr interpolationmode  none
attr source  txPk
attr title  "packets transmitted, sum(packetBytes)"
scalar latencyComparativeGeneric.edgeSwitchLeft.mac[15] 	"simulated time" 	1.000084709989
scalar latencyComparativeGeneric.edgeSwitchLeft.mac[15] 	full-duplex 	1
scalar latencyComparativeGeneric.edgeSwitchLeft.mac[15] 	"frames/sec sent" 	0.99991529718617
scalar latencyComparativeGeneric.edgeSwitchLeft.mac[15] 	"frames/sec rcvd" 	0
scalar latencyComparativeGeneric.edgeSwitchLeft.mac[15] 	"bits/sec sent" 	511.95663215932
scalar latencyComparativeGeneric.edgeSwitchLeft.mac[15] 	"bits/sec rcvd" 	0
scalar latencyComparativeGeneric.edgeSwitchLeft.mac[15] 	"rx channel idle (%)" 	100
scalar latencyComparativeGeneric.edgeSwitchLeft.mac[15] 	"rx channel utilization (%)" 	0
scalar latencyComparativeGeneric.edgeSwitchLeft.mac[15] 	"rx channel collision (%)" 	0
scalar latencyComparativeGeneric.edgeSwitchLeft.mac[15] 	collisions 	0
scalar latencyComparativeGeneric.edgeSwitchLeft.mac[15] 	backoffs 	0
scalar latencyComparativeGeneric.edgeSwitchLeft.mac[15] 	"average latency" 	0
scalar latencyComparativeGeneric.edgeSwitchLeft.mac[15] 	"max latency" 	0
scalar latencyComparativeGeneric.edgeSwitchLeft.mac[15] 	"min latency" 	100
scalar latencyComparativeGeneric.edgeSwitchLeft.mac[15] 	"average processing time" 	8.719999e-06
scalar latencyComparativeGeneric.edgeSwitchLeft.mac[15] 	"max processing time" 	8.719999e-06
scalar latencyComparativeGeneric.edgeSwitchLeft.mac[15] 	"min processing time" 	8.719999e-06
scalar latencyComparativeGeneric.edgeSwitchLeft.mac[15] 	"ARP requests rcvd" 	0
scalar latencyComparativeGeneric.edgeSwitchLeft.mac[15] 	backoff:count 	0
attr interpolationmode  none
attr title  "backoff, count"
scalar latencyComparativeGeneric.edgeSwitchLeft.mac[15] 	collision:count 	0
attr interpolationmode  none
attr title  "collision, count"
scalar latencyComparativeGeneric.edgeSwitchLeft.mac[15] 	droppedPkNotForUs:count 	0
attr interpolationmode  none
attr source  dropPkNotForUs
attr title  "packets dropped/not for us, count"
scalar latencyComparativeGeneric.edgeSwitchLeft.mac[15] 	droppedPkNotForUs:sum(packetBytes) 	0
attr interpolationmode  none
attr source  dropPkNotForUs
attr title  "packets dropped/not for us, sum(packetBytes)"
scalar latencyComparativeGeneric.edgeSwitchLeft.mac[15] 	droppedPkBitError:count 	0
attr interpolationmode  none
attr source  dropPkBitError
attr title  "packets dropped/bit error, count"
scalar latencyComparativeGeneric.edgeSwitchLeft.mac[15] 	droppedPkBitError:sum(packetBytes) 	0
attr interpolationmode  none
attr source  dropPkBitError
attr title  "packets dropped/bit error, sum(packetBytes)"
scalar latencyComparativeGeneric.edgeSwitchLeft.mac[15] 	droppedPkIfaceDown:count 	0
attr interpolationmode  none
attr source  dropPkIfaceDown
attr title  "packets dropped/interface down, count"
scalar latencyComparativeGeneric.edgeSwitchLeft.mac[15] 	droppedPkIfaceDown:sum(packetBytes) 	0
attr interpolationmode  none
attr source  dropPkIfaceDown
attr title  "packets dropped/interface down, sum(packetBytes)"
scalar latencyComparativeGeneric.edgeSwitchLeft.mac[15] 	rxPkFromHL:count 	1
attr interpolationmode  none
attr source  rxPkFromHL
attr title  "packet bytes from higher layer, count"
scalar latencyComparativeGeneric.edgeSwitchLeft.mac[15] 	rxPkFromHL:sum(packetBytes) 	64
attr interpolationmode  none
attr source  rxPkFromHL
attr title  "packet bytes from higher layer, sum(packetBytes)"
scalar latencyComparativeGeneric.edgeSwitchLeft.mac[15] 	rxPausePkUnits:count 	0
attr interpolationmode  none
attr title  "pause units received, count"
[...]
bin	0.066666666666667	0
bin	0.1	0
bin	0.13333333333333	0
bin	0.16666666666667	0
bin	0.2	0
bin	0.23333333333333	0
bin	0.26666666666667	0
bin	0.3	0
bin	0.33333333333333	0
bin	0.36666666666667	0
bin	0.4	0
bin	0.43333333333333	0
bin	0.46666666666667	0
bin	0.5	0
scalar latencyComparativeGeneric.hostRight[23].eth[0].queue.dataQueue 	dropPk:count 	0
attr interpolationmode  none
attr source  dropPkByQueue
attr title  "dropped packets, count"
scalar latencyComparativeGeneric.hostRight[23].eth[0].queue.dataQueue 	dropPk:sum(packetBytes) 	0
attr interpolationmode  none
attr source  dropPkByQueue
attr title  "dropped packets, sum(packetBytes)"
scalar latencyComparativeGeneric.hostRight[23].eth[0].queue.dataQueue 	rcvdPk:count 	0
attr interpolationmode  none
attr title  "received packets, count"
scalar latencyComparativeGeneric.hostRight[23].eth[0].queue.dataQueue 	rcvdPk:sum(packetBytes) 	0
attr interpolationmode  none
attr title  "received packets, sum(packetBytes)"
scalar latencyComparativeGeneric.hostRight[23].eth[0].mac 	"simulated time" 	1.000084709989
scalar latencyComparativeGeneric.hostRight[23].eth[0].mac 	full-duplex 	1
scalar latencyComparativeGeneric.hostRight[23].eth[0].mac 	"frames/sec sent" 	0
scalar latencyComparativeGeneric.hostRight[23].eth[0].mac 	"frames/sec rcvd" 	0.99991529718617
scalar latencyComparativeGeneric.hostRight[23].eth[0].mac 	"bits/sec sent" 	0
scalar latencyComparativeGeneric.hostRight[23].eth[0].mac 	"bits/sec rcvd" 	511.95663215932
scalar latencyComparativeGeneric.hostRight[23].eth[0].mac 	"rx channel idle (%)" 	99.999424048789
scalar latencyComparativeGeneric.hostRight[23].eth[0].mac 	"rx channel utilization (%)" 	0.00057595121117924
scalar latencyComparativeGeneric.hostRight[23].eth[0].mac 	"rx channel collision (%)" 	0
scalar latencyComparativeGeneric.hostRight[23].eth[0].mac 	collisions 	0
scalar latencyComparativeGeneric.hostRight[23].eth[0].mac 	backoffs 	0
scalar latencyComparativeGeneric.hostRight[23].eth[0].mac 	"average latency" 	0
scalar latencyComparativeGeneric.hostRight[23].eth[0].mac 	"max latency" 	0
scalar latencyComparativeGeneric.hostRight[23].eth[0].mac 	"min latency" 	100
scalar latencyComparativeGeneric.hostRight[23].eth[0].mac 	"average processing time" 	0
scalar latencyComparativeGeneric.hostRight[23].eth[0].mac 	"max processing time" 	0
scalar latencyComparativeGeneric.hostRight[23].eth[0].mac 	"min processing time" 	100
scalar latencyComparativeGeneric.hostRight[23].eth[0].mac 	"ARP requests rcvd" 	1
scalar latencyComparativeGeneric.hostRight[23].eth[0].mac 	backoff:count 	0
attr interpolationmode  none
attr title  "backoff, count"
scalar latencyComparativeGeneric.hostRight[23].eth[0].mac 	collision:count 	0
attr interpolationmode  none
attr title  "collision, count"
scalar latencyComparativeGeneric.hostRight[23].eth[0].mac 	droppedPkNotForUs:count 	0
attr interpolationmode  none
attr source  dropPkNotForUs
attr title  "packets dropped/not for us, count"
scalar latencyComparativeGeneric.hostRight[23].eth[0].mac 	droppedPkNotForUs:sum(packetBytes) 	0
attr interpolationmode  none
attr source  dropPkNotForUs
attr title  "packets dropped/not for us, sum(packetBytes)"
scalar latencyComparativeGeneric.hostRight[23].eth[0].mac 	droppedPkBitError:count 	0
attr interpolationmode  none
attr source  dropPkBitError
attr title  "packets dropped/bit error, count"
scalar latencyComparativeGeneric.hostRight[23].eth[0].mac 	droppedPkBitError:sum(packetBytes) 	0
attr interpolationmode  none
attr source  dropPkBitError
attr title  "packets dropped/bit error, sum(packetBytes)"
scalar latencyComparativeGeneric.hostRight[23].eth[0].mac 	droppedPkIfaceDown:count 	0
attr interpolationmode  none
attr source  dropPkIfaceDown
attr title  "packets dropped/interface down, count"
scalar latencyComparativeGeneric.hostRight[23].eth[0].mac 	droppedPkIfaceDown:sum(packetBytes) 	0
attr interpolationmode  none
attr source  dropPkIfaceDown
attr title  "packets dropped/interface down, sum(packetBytes)"
scalar latencyComparativeGeneric.hostRight[23].eth[0].mac 	rxPkFromHL:count 	0
attr interpolationmode  none
attr source  rxPkFromHL
attr title  "packet bytes from higher layer, count"
scalar latencyComparativeGeneric.hostRight[23].eth[0].mac 	rxPkFromHL:sum(packetBytes) 	0
attr interpolationmode  none
attr source  rxPkFromHL
attr title  "packet bytes from higher layer, sum(packetBytes)"
scalar latencyComparativeGeneric.hostRight[23].eth[0].mac 	rxPausePkUnits:count 	0
attr interpolationmode  none
attr title  "pause units received, count"
scalar latencyComparativeGeneric.hostRight[23].eth[0].mac 	rxPausePkUnits:sum 	0
attr interpolationmode  none
attr title  "pause units received, sum"
scalar latencyComparativeGeneric.hostRight[23].eth[0].mac 	txPausePkUnits:count 	0
attr interpolationmode  none
attr title  "pause units sent, count"
scalar latencyComparativeGeneric.hostRight[23].eth[0].mac 	txPausePkUnits:sum 	0
attr interpolationmode  none
attr title  "pause units sent, sum"
scalar latencyComparativeGeneric.hostRight[23].eth[0].mac 	passedUpPk:count 	1
attr interpolationmode  none
attr source  packetSentToUpper
attr title  "packets passed to higher layer, count"
scalar latencyComparativeGeneric.hostRight[23].eth[0].mac 	passedUpPk:sum(packetBytes) 	64
attr interpolationmode  none
attr source  packetSentToUpper
attr title  "packets passed to higher layer, sum(packetBytes)"
scalar latencyComparativeGeneric.hostRight[23].eth[0].mac 	rxPkOk:count 	1
attr interpolationmode  none
attr source  rxPkOk
attr title  "packets received OK, count"
scalar latencyComparativeGeneric.hostRight[23].eth[0].mac 	rxPkOk:sum(packetBytes) 	64
attr interpolationmode  none
attr source  rxPkOk
attr title  "packets received OK, sum(packetBytes)"
scalar latencyComparativeGeneric.hostRight[23].eth[0].mac 	txPk:count 	0
attr interpolationmode  none
attr source  txPk
attr title  "packets transmitted, count"
scalar latencyComparativeGeneric.hostRight[23].eth[0].mac 	txPk:sum(packetBytes) 	0
attr interpolationmode  none
attr source  txPk
attr title  "packets transmitted, sum(packetBytes)"
scalar latencyComparativeGeneric.hostRight[23].eth[0].encap 	pauseSent:count 	0
attr title  "pause sent, count"
scalar latencyComparativeGeneric.hostRight[23].eth[0].encap 	pauseSent:sum 	0
attr title  "pause sent, sum"
scalar latencyComparativeGeneric.hostRight[23].eth[0].encap 	decapPk:count 	1
attr interpolationmode  none
attr source  decapPk
attr title  "packets decapsulated, count"
scalar latencyComparativeGeneric.hostRight[23].eth[0].encap 	decapPk:sum(packetBytes) 	28
attr interpolationmode  none
attr source  decapPk
attr title  "packets decapsulated, sum(packetBytes)"
scalar latencyComparativeGeneric.hostRight[23].eth[0].encap 	encapPk:count 	0
attr interpolationmode  none
attr source  encapPk
attr title  "packets encapsulated, count"
scalar latencyComparativeGeneric.hostRight[23].eth[0].encap 	encapPk:sum(packetBytes) 	0
attr interpolationmode  none
attr source  encapPk
attr title  "packets encapsulated, sum(packetBytes)"
scalar latencyComparativeGeneric.hostRight[23].udpGen 	"packets sent" 	0
scalar latencyComparativeGeneric.hostRight[23].udpGen 	"packets received" 	0
scalar latencyComparativeGeneric.hostRight[23].udp 	droppedPkBadChecksum:count 	0
attr interpolationmode  none
attr title  "packets dropped (checksum error), count"
scalar latencyComparativeGeneric.hostRight[23].udp 	droppedPkWrongPort:count 	0
attr interpolationmode  none
attr title  "packets dropped (wrong port), count"
scalar latencyComparativeGeneric.hostRight[23].udp 	passedUpPk:count 	0
attr interpolationmode  none
attr title  "packets passed up, count"
scalar latencyComparativeGeneric.hostRight[23].udp 	sentPk:count 	0
attr interpolationmode  none
attr source  sentPk
attr title  "packets sent, count"
scalar latencyComparativeGeneric.hostRight[23].udp 	sentPk:sum(packetBytes) 	0
attr interpolationmode  none
attr source  sentPk
attr title  "packets sent, sum(packetBytes)"
scalar latencyComparativeGeneric.hostRight[23].udp 	rcvdPk:count 	0
attr interpolationmode  none
attr source  rcvdPk
attr title  "packets received, count"
scalar latencyComparativeGeneric.hostRight[23].udp 	rcvdPk:sum(packetBytes) 	0
attr interpolationmode  none
attr source  rcvdPk
attr title  "packets received, sum(packetBytes)"
scalar latencyComparativeGeneric.hostRight[24].networkLayer.arp 	failedResolution:count 	0
attr title  "ARP failed resolutions, count"
scalar latencyComparativeGeneric.hostRight[24].networkLayer.arp 	initiatedResolution:count 	0
attr title  "ARP initiated resolutions, count"
scalar latencyComparativeGeneric.hostRight[24].networkLayer.arp 	sentReplies:count 	0
attr title  "ARP replies sent, count"
scalar latencyComparativeGeneric.hostRight[24].networkLayer.arp 	sentReq:count 	0
attr title  "ARP request sent, count"
scalar latencyComparativeGeneric.hostRight[24].eth[0].queue.pauseQueue 	queueLength:max 	0
attr interpolationmode  sample-hold
attr title  "queue length, max"
scalar latencyComparativeGeneric.hostRight[24].eth[0].queue.pauseQueue 	queueLength:timeavg 	0
attr interpolationmode  sample-hold
attr title  "queue length, timeavg"
statistic latencyComparativeGeneric.hostRight[24].eth[0].queue.pauseQueue 	queueingTime:histogram
field count 0
field mean 0
field stddev -nan
field sum 0
field sqrsum 0
field min 0
field max 0
attr interpolationmode  none
attr title  "queueing time, histogram"
bin	-INF	0
bin	-0.5	0
bin	-0.46666666666667	0
bin	-0.43333333333333	0
bin	-0.4	0
bin	-0.36666666666667	0
bin	-0.33333333333333	0
bin	-0.3	0
bin	-0.26666666666667	0
bin	-0.23333333333333	0
bin	-0.2	0
bin	-0.16666666666667	0
bin	-0.13333333333333	0
bin	-0.1	0
bin	-0.066666666666667	0
bin	-0.033333333333333	0
bin	-6.9388939039072e-18	0
bin	0.033333333333333	0
bin	0.066666666666667	0
bin	0.1	0
bin	0.13333333333333	0
bin	0.16666666666667	0
bin	0.2	0
bin	0.23333333333333	0
bin	0.26666666666667	0
bin	0.3	0
bin	0.33333333333333	0
bin	0.36666666666667	0
bin	0.4	0
bin	0.43333333333333	0
bin	0.46666666666667	0
bin	0.5	0
scalar latencyComparativeGeneric.hostRight[24].eth[0].queue.pauseQueue 	dropPk:count 	0
attr interpolationmode  none
attr source  dropPkByQueue
attr title  "dropped packets, count"
scalar latencyComparativeGeneric.hostRight[24].eth[0].queue.pauseQueue 	dropPk:sum(packetBytes) 	0
attr interpolationmode  none
attr source  dropPkByQueue
attr title  "dropped packets, sum(packetBytes)"
scalar latencyComparativeGeneric.hostRight[24].eth[0].queue.pauseQueue 	rcvdPk:count 	0
attr interpolationmode  none
attr title  "received packets, count"
scalar latencyComparativeGeneric.hostRight[24].eth[0].queue.pauseQueue 	rcvdPk:sum(packetBytes) 	0
attr interpolationmode  none
attr title  "received packets, sum(packetBytes)"
scalar latencyComparativeGeneric.hostRight[24].eth[0].queue.dataQueue 	queueLength:max 	0
attr interpolationmode  sample-hold
attr title  "queue length, max"
scalar latencyComparativeGeneric.hostRight[24].eth[0].queue.dataQueue 	queueLength:timeavg 	0
attr interpolationmode  sample-hold
attr title  "queue length, timeavg"
statistic latencyComparativeGeneric.hostRight[24].eth[0].queue.dataQueue 	queueingTime:histogram
field count 0
field mean 0
field stddev -nan
field sum 0
field sqrsum 0
field min 0
field max 0
attr interpolationmode  none
attr title  "queueing time, histogram"
bin	-INF	0
bin	-0.5	0
bin	-0.46666666666667	0
bin	-0.43333333333333	0
bin	-0.4	0
bin	-0.36666666666667	0
bin	-0.33333333333333	0
bin	-0.3	0
bin	-0.26666666666667	0
bin	-0.23333333333333	0
bin	-0.2	0
bin	-0.16666666666667	0
bin	-0.13333333333333	0
bin	-0.1	0
bin	-0.066666666666667	0
bin	-0.033333333333333	0
bin	-6.9388939039072e-18	0
bin	0.033333333333333	0
bin	0.066666666666667	0
bin	0.1	0
bin	0.13333333333333	0
bin	0.16666666666667	0
bin	0.2	0
bin	0.23333333333333	0
bin	0.26666666666667	0
bin	0.3	0
bin	0.33333333333333	0
bin	0.36666666666667	0
bin	0.4	0
bin	0.43333333333333	0
bin	0.46666666666667	0
bin	0.5	0
scalar latencyComparativeGeneric.hostRight[24].eth[0].queue.dataQueue 	dropPk:count 	0
attr interpolationmode  none
attr source  dropPkByQueue
attr title  "dropped packets, count"
scalar latencyComparativeGeneric.hostRight[24].eth[0].queue.dataQueue 	dropPk:sum(packetBytes) 	0
attr interpolationmode  none
attr source  dropPkByQueue
attr title  "dropped packets, sum(packetBytes)"
scalar latencyComparativeGeneric.hostRight[24].eth[0].queue.dataQueue 	rcvdPk:count 	0
attr interpolationmode  none
attr title  "received packets, count"
scalar latencyComparativeGeneric.hostRight[24].eth[0].queue.dataQueue 	rcvdPk:sum(packetBytes) 	0
attr interpolationmode  none
attr title  "received packets, sum(packetBytes)"
scalar latencyComparativeGeneric.hostRight[24].eth[0].mac 	"simulated time" 	1.000084709989
scalar latencyComparativeGeneric.hostRight[24].eth[0].mac 	full-duplex 	1
scalar latencyComparativeGeneric.hostRight[24].eth[0].mac 	"frames/sec sent" 	0
scalar latencyComparativeGeneric.hostRight[24].eth[0].mac 	"frames/sec rcvd" 	0.99991529718617
scalar latencyComparativeGeneric.hostRight[24].eth[0].mac 	"bits/sec sent" 	0
scalar latencyComparativeGeneric.hostRight[24].eth[0].mac 	"bits/sec rcvd" 	511.95663215932
scalar latencyComparativeGeneric.hostRight[24].eth[0].mac 	"rx channel idle (%)" 	99.999424048789
scalar latencyComparativeGeneric.hostRight[24].eth[0].mac 	"rx channel utilization (%)" 	0.00057595121117924
scalar latencyComparativeGeneric.hostRight[24].eth[0].mac 	"rx channel collision (%)" 	0
scalar latencyComparativeGeneric.hostRight[24].eth[0].mac 	collisions 	0
scalar latencyComparativeGeneric.hostRight[24].eth[0].mac 	backoffs 	0
scalar latencyComparativeGeneric.hostRight[24].eth[0].mac 	"average latency" 	0
scalar latencyComparativeGeneric.hostRight[24].eth[0].mac 	"max latency" 	0
scalar latencyComparativeGeneric.hostRight[24].eth[0].mac 	"min latency" 	100
scalar latencyComparativeGeneric.hostRight[24].eth[0].mac 	"average processing time" 	0
scalar latencyComparativeGeneric.hostRight[24].eth[0].mac 	"max processing time" 	0
scalar latencyComparativeGeneric.hostRight[24].eth[0].mac 	"min processing time" 	100
scalar latencyComparativeGeneric.hostRight[24].eth[0].mac 	"ARP requests rcvd" 	1
scalar latencyComparativeGeneric.hostRight[24].eth[0].mac 	backoff:count 	0
attr interpolationmode  none
attr title  "backoff, count"
scalar latencyComparativeGeneric.hostRight[24].eth[0].mac 	collision:count 	0
attr interpolationmode  none
attr title  "collision, count"
scalar latencyComparativeGeneric.hostRight[24].eth[0].mac 	droppedPkNotForUs:count 	0
attr interpolationmode  none
attr source  dropPkNotForUs
attr title  "packets dropped/not for us, count"
scalar latencyComparativeGeneric.hostRight[24].eth[0].mac 	droppedPkNotForUs:sum(packetBytes) 	0
attr interpolationmode  none
attr source  dropPkNotForUs
attr title  "packets dropped/not for us, sum(packetBytes)"
scalar latencyComparativeGeneric.hostRight[24].eth[0].mac 	droppedPkBitError:count 	0
attr interpolationmode  none
attr source  dropPkBitError
attr title  "packets dropped/bit error, count"
scalar latencyComparativeGeneric.hostRight[24].eth[0].mac 	droppedPkBitError:sum(packetBytes) 	0
attr interpolationmode  none
attr source  dropPkBitError
attr title  "packets dropped/bit error, sum(packetBytes)"
scalar latencyComparativeGeneric.hostRight[24].eth[0].mac 	droppedPkIfaceDown:count 	0
attr interpolationmode  none
attr source  dropPkIfaceDown
attr title  "packets dropped/interface down, count"
scalar latencyComparativeGeneric.hostRight[24].eth[0].mac 	droppedPkIfaceDown:sum(packetBytes) 	0
attr interpolationmode  none
attr source  dropPkIfaceDown
attr title  "packets dropped/interface down, sum(packetBytes)"
scalar latencyComparativeGeneric.hostRight[24].eth[0].mac 	rxPkFromHL:count 	0
attr interpolationmode  none
attr source  rxPkFromHL
attr title  "packet bytes from higher layer, count"
scalar latencyComparativeGeneric.hostRight[24].eth[0].mac 	rxPkFromHL:sum(packetBytes) 	0
attr interpolationmode  none
attr source  rxPkFromHL
attr title  "packet bytes from higher layer, sum(packetBytes)"
scalar latencyComparativeGeneric.hostRight[24].eth[0].mac 	rxPausePkUnits:count 	0
attr interpolationmode  none
attr title  "pause units received, count"
scalar latencyComparativeGeneric.hostRight[24].eth[0].mac 	rxPausePkUnits:sum 	0
attr interpolationmode  none
attr title  "pause units received, sum"
scalar latencyComparativeGeneric.hostRight[24].eth[0].mac 	txPausePkUnits:count 	0
attr interpolationmode  none
attr title  "pause units sent, count"
scalar latencyComparativeGeneric.hostRight[24].eth[0].mac 	txPausePkUnits:sum 	0
attr interpolationmode  none
attr title  "pause units sent, sum"
scalar latencyComparativeGeneric.hostRight[24].eth[0].mac 	passedUpPk:count 	1
attr interpolationmode  none
attr source  packetSentToUpper
attr title  "packets passed to higher layer, count"
scalar latencyComparativeGeneric.hostRight[24].eth[0].mac 	passedUpPk:sum(packetBytes) 	64
attr interpolationmode  none
attr source  packetSentToUpper
attr title  "packets passed to higher layer, sum(packetBytes)"
scalar latencyComparativeGeneric.hostRight[24].eth[0].mac 	rxPkOk:count 	1
attr interpolationmode  none
attr source  rxPkOk
attr title  "packets received OK, count"
scalar latencyComparativeGeneric.hostRight[24].eth[0].mac 	rxPkOk:sum(packetBytes) 	64
attr interpolationmode  none
attr source  rxPkOk
attr title  "packets received OK, sum(packetBytes)"
scalar latencyComparativeGeneric.hostRight[24].eth[0].mac 	txPk:count 	0
attr interpolationmode  none
attr source  txPk
attr title  "packets transmitted, count"
scalar latencyComparativeGeneric.hostRight[24].eth[0].mac 	txPk:sum(packetBytes) 	0
attr interpolationmode  none
attr source  txPk
attr title  "packets transmitted, sum(packetBytes)"
scalar latencyComparativeGeneric.hostRight[24].eth[0].encap 	pauseSent:count 	0
attr title  "pause sent, count"
scalar latencyComparativeGeneric.hostRight[24].eth[0].encap 	pauseSent:sum 	0
attr title  "pause sent, sum"
scalar latencyComparativeGeneric.hostRight[24].eth[0].encap 	decapPk:count 	1
attr interpolationmode  none
attr source  decapPk
attr title  "packets decapsulated, count"
scalar latencyComparativeGeneric.hostRight[24].eth[0].encap 	decapPk:sum(packetBytes) 	28
attr interpolationmode  none
attr source  decapPk
attr title  "packets decapsulated, sum(packetBytes)"
scalar latencyComparativeGeneric.hostRight[24].eth[0].encap 	encapPk:count 	0
attr interpolationmode  none
attr source  encapPk
attr title  "packets encapsulated, count"
scalar latencyComparativeGeneric.hostRight[24].eth[0].encap 	encapPk:sum(packetBytes) 	0
attr interpolationmode  none
attr source  encapPk
attr title  "packets encapsulated, sum(packetBytes)"
scalar latencyComparativeGeneric.hostRight[24].udpGen 	"packets sent" 	0
scalar latencyComparativeGeneric.hostRight[24].udpGen 	"packets received" 	0
scalar latencyComparativeGeneric.hostRight[24].udp 	droppedPkBadChecksum:count 	0
attr interpolationmode  none
attr title  "packets dropped (checksum error), count"
scalar latencyComparativeGeneric.hostRight[24].udp 	droppedPkWrongPort:count 	0
attr interpolationmode  none
attr title  "packets dropped (wrong port), count"
scalar latencyComparativeGeneric.hostRight[24].udp 	passedUpPk:count 	0
attr interpolationmode  none
attr title  "packets passed up, count"
scalar latencyComparativeGeneric.hostRight[24].udp 	sentPk:count 	0
attr interpolationmode  none
attr source  sentPk
attr title  "packets sent, count"
scalar latencyComparativeGeneric.hostRight[24].udp 	sentPk:sum(packetBytes) 	0
attr interpolationmode  none
attr source  sentPk
attr title  "packets sent, sum(packetBytes)"
scalar latencyComparativeGeneric.hostRight[24].udp 	rcvdPk:count 	0
attr interpolationmode  none
attr source  rcvdPk
attr title  "packets received, count"
scalar latencyComparativeGeneric.hostRight[24].udp 	rcvdPk:sum(packetBytes) 	0
attr interpolationmode  none
attr source  rcvdPk
attr title  "packets received, sum(packetBytes)"
