version 2
run General-0-20140108-15:39:14-9713
attr configname General
attr datetime 20140108-15:39:14
attr experiment General
attr inifile grid-fullhost-flow-generator.ini
attr iterationvars ""
attr iterationvars2 $repetition=0
attr measurement ""
attr network arppathbridgesunidireccional.src.topologies.gridLoadGenerator.gridfullhost
attr processid 9713
attr repetition 0
attr replication #0
attr resultdir results
attr runnumber 0
attr seedset 0

scalar gridfullhost.switch[0].relayUnit 	"processed frames" 	546297
scalar gridfullhost.switch[0].relayUnit 	"dropped frames" 	0
scalar gridfullhost.switch[0].relayUnit 	"ARP requests rcvd" 	123
scalar gridfullhost.switch[0].relayUnit 	"ARP replies rcvd" 	20
scalar gridfullhost.switch[0].relayUnit 	"number of repairs started" 	0
scalar gridfullhost.switch[0].relayUnit 	"Hellos rcvd" 	20
scalar gridfullhost.switch[0].relayUnit 	"PathFails rcvd" 	0
scalar gridfullhost.switch[0].relayUnit 	"PathRequests rcvd" 	0
scalar gridfullhost.switch[0].relayUnit 	"PathReplies rcvd" 	0
scalar gridfullhost.switch[0].relayUnit 	"LinkFails rcvd" 	11
scalar gridfullhost.switch[0].relayUnit 	"LinkReplies rcvd" 	17
scalar gridfullhost.switch[0].relayUnit 	"number of lost packets" 	0
scalar gridfullhost.switch[0].relayUnit 	"average PathFail time" 	0
scalar gridfullhost.switch[0].relayUnit 	"max PathFail time" 	0
scalar gridfullhost.switch[0].relayUnit 	"min PathFail time" 	100
scalar gridfullhost.switch[0].relayUnit 	"PathFails rcvd at destination" 	0
scalar gridfullhost.switch[0].relayUnit 	"average PathRequest time" 	0
scalar gridfullhost.switch[0].relayUnit 	"max PathRequest time" 	0
scalar gridfullhost.switch[0].relayUnit 	"min PathRequest time" 	100
scalar gridfullhost.switch[0].relayUnit 	"PathRequests rcvd at destination" 	0
scalar gridfullhost.switch[0].relayUnit 	"average PathReply time" 	0
scalar gridfullhost.switch[0].relayUnit 	"max PathReply time" 	0
scalar gridfullhost.switch[0].relayUnit 	"min PathReply time" 	100
scalar gridfullhost.switch[0].relayUnit 	"PathReplies rcvd at destination" 	0
scalar gridfullhost.switch[0].relayUnit 	"average LinkFail time" 	7.673749e-06
scalar gridfullhost.switch[0].relayUnit 	"max LinkFail time" 	1.7539998e-05
scalar gridfullhost.switch[0].relayUnit 	"min LinkFail time" 	0
scalar gridfullhost.switch[0].relayUnit 	"LinkFails rcvd at destination" 	3
scalar gridfullhost.switch[0].relayUnit 	"addresses repaired by LinkFails rcvd at destination" 	8
scalar gridfullhost.switch[0].relayUnit 	"average LinkReply time" 	0
scalar gridfullhost.switch[0].relayUnit 	"max LinkReply time" 	0
scalar gridfullhost.switch[0].relayUnit 	"min LinkReply time" 	100
scalar gridfullhost.switch[0].relayUnit 	"LinkReplies rcvd at destination" 	0
scalar gridfullhost.switch[0].relayUnit 	"addresses repaired by LinkReplies rcvd at destination" 	0
scalar gridfullhost.switch[0].relayUnit 	"average repair time" 	0
scalar gridfullhost.switch[0].relayUnit 	"max repair time" 	0
scalar gridfullhost.switch[0].relayUnit 	"min repair time" 	100
scalar gridfullhost.switch[0].relayUnit 	"number of repairs finished" 	0
scalar gridfullhost.switch[0].mac[0] 	"simulated time" 	100
scalar gridfullhost.switch[0].mac[0] 	full-duplex 	1
scalar gridfullhost.switch[0].mac[0] 	"frames/sec sent" 	844.61
scalar gridfullhost.switch[0].mac[0] 	"frames/sec rcvd" 	4194.42
scalar gridfullhost.switch[0].mac[0] 	"bits/sec sent" 	4485064.48
scalar gridfullhost.switch[0].mac[0] 	"bits/sec rcvd" 	4883288.8
scalar gridfullhost.switch[0].mac[0] 	"rx channel idle (%)" 	94.84826832
scalar gridfullhost.switch[0].mac[0] 	"rx channel utilization (%)" 	5.15173168
scalar gridfullhost.switch[0].mac[0] 	"rx channel collision (%)" 	0
scalar gridfullhost.switch[0].mac[0] 	collisions 	0
scalar gridfullhost.switch[0].mac[0] 	backoffs 	0
scalar gridfullhost.switch[0].mac[0] 	"average latency" 	0
scalar gridfullhost.switch[0].mac[0] 	"max latency" 	0
scalar gridfullhost.switch[0].mac[0] 	"min latency" 	100
scalar gridfullhost.switch[0].mac[0] 	"average processing time" 	0.007634906999
scalar gridfullhost.switch[0].mac[0] 	"max processing time" 	97.000033029996
scalar gridfullhost.switch[0].mac[0] 	"min processing time" 	6.719999e-06
scalar gridfullhost.switch[0].mac[0] 	"debug time" 	97.000033029996
scalar gridfullhost.switch[0].mac[0] 	"ARP requests rcvd" 	55
scalar gridfullhost.switch[0].mac[0] 	backoff:count 	0
attr interpolationmode  none
attr title  "backoff, count"
scalar gridfullhost.switch[0].mac[0] 	collision:count 	0
attr interpolationmode  none
attr title  "collision, count"
scalar gridfullhost.switch[0].mac[0] 	droppedPkNotForUs:count 	0
attr interpolationmode  none
attr source  dropPkNotForUs
attr title  "packets dropped/not for us, count"
scalar gridfullhost.switch[0].mac[0] 	droppedPkNotForUs:sum(packetBytes) 	0
attr interpolationmode  none
attr source  dropPkNotForUs
attr title  "packets dropped/not for us, sum(packetBytes)"
scalar gridfullhost.switch[0].mac[0] 	droppedPkBitError:count 	0
attr interpolationmode  none
attr source  dropPkBitError
attr title  "packets dropped/bit error, count"
scalar gridfullhost.switch[0].mac[0] 	droppedPkBitError:sum(packetBytes) 	0
attr interpolationmode  none
attr source  dropPkBitError
attr title  "packets dropped/bit error, sum(packetBytes)"
scalar gridfullhost.switch[0].mac[0] 	droppedPkIfaceDown:count 	0
attr interpolationmode  none
attr source  dropPkIfaceDown
attr title  "packets dropped/interface down, count"
scalar gridfullhost.switch[0].mac[0] 	droppedPkIfaceDown:sum(packetBytes) 	0
attr interpolationmode  none
attr source  dropPkIfaceDown
attr title  "packets dropped/interface down, sum(packetBytes)"
scalar gridfullhost.switch[0].mac[0] 	rxPkFromHL:count 	84461
attr interpolationmode  none
attr source  rxPkFromHL
attr title  "packet bytes from higher layer, count"
scalar gridfullhost.switch[0].mac[0] 	rxPkFromHL:sum(packetBytes) 	56063306
attr interpolationmode  none
attr source  rxPkFromHL
attr title  "packet bytes from higher layer, sum(packetBytes)"
scalar gridfullhost.switch[0].mac[0] 	rxPausePkUnits:count 	0
attr interpolationmode  none
attr title  "pause units received, count"
scalar gridfullhost.switch[0].mac[0] 	rxPausePkUnits:sum 	0
attr interpolationmode  none
attr title  "pause units received, sum"
scalar gridfullhost.switch[0].mac[0] 	txPausePkUnits:count 	0
attr interpolationmode  none
attr title  "pause units sent, count"
scalar gridfullhost.switch[0].mac[0] 	txPausePkUnits:sum 	0
attr interpolationmode  none
attr title  "pause units sent, sum"
scalar gridfullhost.switch[0].mac[0] 	passedUpPk:count 	419442
attr interpolationmode  none
attr source  packetSentToUpper
attr title  "packets passed to higher layer, count"
scalar gridfullhost.switch[0].mac[0] 	passedUpPk:sum(packetBytes) 	61041110
attr interpolationmode  none
attr source  packetSentToUpper
attr title  "packets passed to higher layer, sum(packetBytes)"
scalar gridfullhost.switch[0].mac[0] 	rxPkOk:count 	419442
attr interpolationmode  none
attr source  rxPkOk
attr title  "packets received OK, count"
scalar gridfullhost.switch[0].mac[0] 	rxPkOk:sum(packetBytes) 	61041110
attr interpolationmode  none
attr source  rxPkOk
attr title  "packets received OK, sum(packetBytes)"
scalar gridfullhost.switch[0].mac[0] 	txPk:count 	84461
attr interpolationmode  none
attr source  txPk
attr title  "packets transmitted, count"
scalar gridfullhost.switch[0].mac[0] 	txPk:sum(packetBytes) 	56063306
attr interpolationmode  none
attr source  txPk
attr title  "packets transmitted, sum(packetBytes)"
scalar gridfullhost.switch[0].mac[1] 	"simulated time" 	100
scalar gridfullhost.switch[0].mac[1] 	full-duplex 	1
scalar gridfullhost.switch[0].mac[1] 	"frames/sec sent" 	3910.2
scalar gridfullhost.switch[0].mac[1] 	"frames/sec rcvd" 	448.1
scalar gridfullhost.switch[0].mac[1] 	"bits/sec sent" 	3834452
scalar gridfullhost.switch[0].mac[1] 	"bits/sec rcvd" 	2077095.36
scalar gridfullhost.switch[0].mac[1] 	"rx channel idle (%)" 	97.89422624
scalar gridfullhost.switch[0].mac[1] 	"rx channel utilization (%)" 	2.10577376
scalar gridfullhost.switch[0].mac[1] 	"rx channel collision (%)" 	0
scalar gridfullhost.switch[0].mac[1] 	collisions 	0
scalar gridfullhost.switch[0].mac[1] 	backoffs 	0
scalar gridfullhost.switch[0].mac[1] 	"average latency" 	0
scalar gridfullhost.switch[0].mac[1] 	"max latency" 	0
scalar gridfullhost.switch[0].mac[1] 	"min latency" 	100
scalar gridfullhost.switch[0].mac[1] 	"average processing time" 	0.001251817035
scalar gridfullhost.switch[0].mac[1] 	"max processing time" 	90.000006719999
scalar gridfullhost.switch[0].mac[1] 	"min processing time" 	6.719999e-06
scalar gridfullhost.switch[0].mac[1] 	"debug time" 	90.000006719999
scalar gridfullhost.switch[0].mac[1] 	"ARP requests rcvd" 	57
scalar gridfullhost.switch[0].mac[1] 	backoff:count 	0
attr interpolationmode  none
attr title  "backoff, count"
scalar gridfullhost.switch[0].mac[1] 	collision:count 	0
attr interpolationmode  none
attr title  "collision, count"
scalar gridfullhost.switch[0].mac[1] 	droppedPkNotForUs:count 	0
attr interpolationmode  none
attr source  dropPkNotForUs
attr title  "packets dropped/not for us, count"
scalar gridfullhost.switch[0].mac[1] 	droppedPkNotForUs:sum(packetBytes) 	0
attr interpolationmode  none
attr source  dropPkNotForUs
attr title  "packets dropped/not for us, sum(packetBytes)"
scalar gridfullhost.switch[0].mac[1] 	droppedPkBitError:count 	0
attr interpolationmode  none
attr source  dropPkBitError
attr title  "packets dropped/bit error, count"
scalar gridfullhost.switch[0].mac[1] 	droppedPkBitError:sum(packetBytes) 	0
attr interpolationmode  none
attr source  dropPkBitError
attr title  "packets dropped/bit error, sum(packetBytes)"
scalar gridfullhost.switch[0].mac[1] 	droppedPkIfaceDown:count 	0
attr interpolationmode  none
attr source  dropPkIfaceDown
attr title  "packets dropped/interface down, count"
scalar gridfullhost.switch[0].mac[1] 	droppedPkIfaceDown:sum(packetBytes) 	0
attr interpolationmode  none
attr source  dropPkIfaceDown
attr title  "packets dropped/interface down, sum(packetBytes)"
scalar gridfullhost.switch[0].mac[1] 	rxPkFromHL:count 	391036
attr interpolationmode  none
attr source  rxPkFromHL
attr title  "packet bytes from higher layer, count"
scalar gridfullhost.switch[0].mac[1] 	rxPkFromHL:sum(packetBytes) 	47933270
attr interpolationmode  none
attr source  rxPkFromHL
attr title  "packet bytes from higher layer, sum(packetBytes)"
scalar gridfullhost.switch[0].mac[1] 	rxPausePkUnits:count 	0
attr interpolationmode  none
attr title  "pause units received, count"
scalar gridfullhost.switch[0].mac[1] 	rxPausePkUnits:sum 	0
attr interpolationmode  none
attr title  "pause units received, sum"
scalar gridfullhost.switch[0].mac[1] 	txPausePkUnits:count 	0
attr interpolationmode  none
attr title  "pause units sent, count"
scalar gridfullhost.switch[0].mac[1] 	txPausePkUnits:sum 	0
attr interpolationmode  none
attr title  "pause units sent, sum"
scalar gridfullhost.switch[0].mac[1] 	passedUpPk:count 	44810
attr interpolationmode  none
attr source  packetSentToUpper
attr title  "packets passed to higher layer, count"
scalar gridfullhost.switch[0].mac[1] 	passedUpPk:sum(packetBytes) 	25963692
attr interpolationmode  none
attr source  packetSentToUpper
attr title  "packets passed to higher layer, sum(packetBytes)"
scalar gridfullhost.switch[0].mac[1] 	rxPkOk:count 	44810
attr interpolationmode  none
attr source  rxPkOk
attr title  "packets received OK, count"
scalar gridfullhost.switch[0].mac[1] 	rxPkOk:sum(packetBytes) 	25963692
attr interpolationmode  none
attr source  rxPkOk
attr title  "packets received OK, sum(packetBytes)"
scalar gridfullhost.switch[0].mac[1] 	txPk:count 	391020
attr interpolationmode  none
attr source  txPk
attr title  "packets transmitted, count"
scalar gridfullhost.switch[0].mac[1] 	txPk:sum(packetBytes) 	47930650
attr interpolationmode  none
attr source  txPk
attr title  "packets transmitted, sum(packetBytes)"
scalar gridfullhost.switch[0].mac[2] 	"simulated time" 	100
scalar gridfullhost.switch[0].mac[2] 	full-duplex 	1
scalar gridfullhost.switch[0].mac[2] 	"frames/sec sent" 	77.84
scalar gridfullhost.switch[0].mac[2] 	"frames/sec rcvd" 	38.51
scalar gridfullhost.switch[0].mac[2] 	"bits/sec sent" 	488302.08
scalar gridfullhost.switch[0].mac[2] 	"bits/sec rcvd" 	22797.12
scalar gridfullhost.switch[0].mac[2] 	"rx channel idle (%)" 	99.97473824
scalar gridfullhost.switch[0].mac[2] 	"rx channel utilization (%)" 	0.02526176
scalar gridfullhost.switch[0].mac[2] 	"rx channel collision (%)" 	0
scalar gridfullhost.switch[0].mac[2] 	collisions 	0
scalar gridfullhost.switch[0].mac[2] 	backoffs 	0
scalar gridfullhost.switch[0].mac[2] 	"average latency" 	0
scalar gridfullhost.switch[0].mac[2] 	"max latency" 	0
scalar gridfullhost.switch[0].mac[2] 	"min latency" 	100
scalar gridfullhost.switch[0].mac[2] 	"average processing time" 	0.019393846394
scalar gridfullhost.switch[0].mac[2] 	"max processing time" 	50.000006719999
scalar gridfullhost.switch[0].mac[2] 	"min processing time" 	6.719999e-06
scalar gridfullhost.switch[0].mac[2] 	"debug time" 	50.000006719999
scalar gridfullhost.switch[0].mac[2] 	"ARP requests rcvd" 	0
scalar gridfullhost.switch[0].mac[2] 	backoff:count 	0
attr interpolationmode  none
attr title  "backoff, count"
scalar gridfullhost.switch[0].mac[2] 	collision:count 	0
attr interpolationmode  none
attr title  "collision, count"
scalar gridfullhost.switch[0].mac[2] 	droppedPkNotForUs:count 	0
attr interpolationmode  none
attr source  dropPkNotForUs
attr title  "packets dropped/not for us, count"
scalar gridfullhost.switch[0].mac[2] 	droppedPkNotForUs:sum(packetBytes) 	0
attr interpolationmode  none
attr source  dropPkNotForUs
attr title  "packets dropped/not for us, sum(packetBytes)"
scalar gridfullhost.switch[0].mac[2] 	droppedPkBitError:count 	0
attr interpolationmode  none
attr source  dropPkBitError
attr title  "packets dropped/bit error, count"
scalar gridfullhost.switch[0].mac[2] 	droppedPkBitError:sum(packetBytes) 	0
attr interpolationmode  none
attr source  dropPkBitError
attr title  "packets dropped/bit error, sum(packetBytes)"
scalar gridfullhost.switch[0].mac[2] 	droppedPkIfaceDown:count 	0
attr interpolationmode  none
attr source  dropPkIfaceDown
attr title  "packets dropped/interface down, count"
scalar gridfullhost.switch[0].mac[2] 	droppedPkIfaceDown:sum(packetBytes) 	0
attr interpolationmode  none
attr source  dropPkIfaceDown
attr title  "packets dropped/interface down, sum(packetBytes)"
scalar gridfullhost.switch[0].mac[2] 	rxPkFromHL:count 	7784
attr interpolationmode  none
attr source  rxPkFromHL
attr title  "packet bytes from higher layer, count"
scalar gridfullhost.switch[0].mac[2] 	rxPkFromHL:sum(packetBytes) 	6103776
attr interpolationmode  none
attr source  rxPkFromHL
attr title  "packet bytes from higher layer, sum(packetBytes)"
scalar gridfullhost.switch[0].mac[2] 	rxPausePkUnits:count 	0
attr interpolationmode  none
attr title  "pause units received, count"
scalar gridfullhost.switch[0].mac[2] 	rxPausePkUnits:sum 	0
attr interpolationmode  none
attr title  "pause units received, sum"
scalar gridfullhost.switch[0].mac[2] 	txPausePkUnits:count 	0
attr interpolationmode  none
attr title  "pause units sent, count"
scalar gridfullhost.switch[0].mac[2] 	txPausePkUnits:sum 	0
attr interpolationmode  none
attr title  "pause units sent, sum"
scalar gridfullhost.switch[0].mac[2] 	passedUpPk:count 	3851
attr interpolationmode  none
attr source  packetSentToUpper
attr title  "packets passed to higher layer, count"
scalar gridfullhost.switch[0].mac[2] 	passedUpPk:sum(packetBytes) 	284964
attr interpolationmode  none
attr source  packetSentToUpper
attr title  "packets passed to higher layer, sum(packetBytes)"
scalar gridfullhost.switch[0].mac[2] 	rxPkOk:count 	3851
attr interpolationmode  none
attr source  rxPkOk
attr title  "packets received OK, count"
scalar gridfullhost.switch[0].mac[2] 	rxPkOk:sum(packetBytes) 	284964
attr interpolationmode  none
attr source  rxPkOk
attr title  "packets received OK, sum(packetBytes)"
scalar gridfullhost.switch[0].mac[2] 	txPk:count 	7784
attr interpolationmode  none
attr source  txPk
attr title  "packets transmitted, count"
scalar gridfullhost.switch[0].mac[2] 	txPk:sum(packetBytes) 	6103776
attr interpolationmode  none
attr source  txPk
attr title  "packets transmitted, sum(packetBytes)"
scalar gridfullhost.switch[0].mac[3] 	"simulated time" 	100
scalar gridfullhost.switch[0].mac[3] 	full-duplex 	1
scalar gridfullhost.switch[0].mac[3] 	"frames/sec sent" 	122.91
scalar gridfullhost.switch[0].mac[3] 	"frames/sec rcvd" 	61.09
scalar gridfullhost.switch[0].mac[3] 	"bits/sec sent" 	774273.28
scalar gridfullhost.switch[0].mac[3] 	"bits/sec rcvd" 	36163.68
scalar gridfullhost.switch[0].mac[3] 	"rx channel idle (%)" 	99.95992656
scalar gridfullhost.switch[0].mac[3] 	"rx channel utilization (%)" 	0.04007344
scalar gridfullhost.switch[0].mac[3] 	"rx channel collision (%)" 	0
scalar gridfullhost.switch[0].mac[3] 	collisions 	0
scalar gridfullhost.switch[0].mac[3] 	backoffs 	0
scalar gridfullhost.switch[0].mac[3] 	"average latency" 	0
scalar gridfullhost.switch[0].mac[3] 	"max latency" 	0
scalar gridfullhost.switch[0].mac[3] 	"min latency" 	100
scalar gridfullhost.switch[0].mac[3] 	"average processing time" 	0.000122966926
scalar gridfullhost.switch[0].mac[3] 	"max processing time" 	0.000126862402
scalar gridfullhost.switch[0].mac[3] 	"min processing time" 	6.719999e-06
scalar gridfullhost.switch[0].mac[3] 	"debug time" 	0
scalar gridfullhost.switch[0].mac[3] 	"ARP requests rcvd" 	0
scalar gridfullhost.switch[0].mac[3] 	backoff:count 	0
attr interpolationmode  none
attr title  "backoff, count"
scalar gridfullhost.switch[0].mac[3] 	collision:count 	0
attr interpolationmode  none
attr title  "collision, count"
scalar gridfullhost.switch[0].mac[3] 	droppedPkNotForUs:count 	0
attr interpolationmode  none
attr source  dropPkNotForUs
attr title  "packets dropped/not for us, count"
scalar gridfullhost.switch[0].mac[3] 	droppedPkNotForUs:sum(packetBytes) 	0
attr interpolationmode  none
attr source  dropPkNotForUs
attr title  "packets dropped/not for us, sum(packetBytes)"
scalar gridfullhost.switch[0].mac[3] 	droppedPkBitError:count 	0
attr interpolationmode  none
attr source  dropPkBitError
attr title  "packets dropped/bit error, count"
scalar gridfullhost.switch[0].mac[3] 	droppedPkBitError:sum(packetBytes) 	0
attr interpolationmode  none
attr source  dropPkBitError
attr title  "packets dropped/bit error, sum(packetBytes)"
scalar gridfullhost.switch[0].mac[3] 	droppedPkIfaceDown:count 	0
attr interpolationmode  none
attr source  dropPkIfaceDown
attr title  "packets dropped/interface down, count"
scalar gridfullhost.switch[0].mac[3] 	droppedPkIfaceDown:sum(packetBytes) 	0
attr interpolationmode  none
attr source  dropPkIfaceDown
attr title  "packets dropped/interface down, sum(packetBytes)"
scalar gridfullhost.switch[0].mac[3] 	rxPkFromHL:count 	12291
attr interpolationmode  none
attr source  rxPkFromHL
attr title  "packet bytes from higher layer, count"
scalar gridfullhost.switch[0].mac[3] 	rxPkFromHL:sum(packetBytes) 	9678416
attr interpolationmode  none
attr source  rxPkFromHL
attr title  "packet bytes from higher layer, sum(packetBytes)"
scalar gridfullhost.switch[0].mac[3] 	rxPausePkUnits:count 	0
attr interpolationmode  none
attr title  "pause units received, count"
scalar gridfullhost.switch[0].mac[3] 	rxPausePkUnits:sum 	0
attr interpolationmode  none
attr title  "pause units received, sum"
scalar gridfullhost.switch[0].mac[3] 	txPausePkUnits:count 	0
attr interpolationmode  none
attr title  "pause units sent, count"
scalar gridfullhost.switch[0].mac[3] 	txPausePkUnits:sum 	0
attr interpolationmode  none
attr title  "pause units sent, sum"
scalar gridfullhost.switch[0].mac[3] 	passedUpPk:count 	6109
attr interpolationmode  none
attr source  packetSentToUpper
attr title  "packets passed to higher layer, count"
scalar gridfullhost.switch[0].mac[3] 	passedUpPk:sum(packetBytes) 	452046
attr interpolationmode  none
attr source  packetSentToUpper
attr title  "packets passed to higher layer, sum(packetBytes)"
scalar gridfullhost.switch[0].mac[3] 	rxPkOk:count 	6109
attr interpolationmode  none
attr source  rxPkOk
attr title  "packets received OK, count"
scalar gridfullhost.switch[0].mac[3] 	rxPkOk:sum(packetBytes) 	452046
attr interpolationmode  none
attr source  rxPkOk
attr title  "packets received OK, sum(packetBytes)"
scalar gridfullhost.switch[0].mac[3] 	txPk:count 	12291
attr interpolationmode  none
attr source  txPk
attr title  "packets transmitted, count"
scalar gridfullhost.switch[0].mac[3] 	txPk:sum(packetBytes) 	9678416
attr interpolationmode  none
attr source  txPk
attr title  "packets transmitted, sum(packetBytes)"
scalar gridfullhost.switch[0].mac[4] 	"simulated time" 	100
scalar gridfullhost.switch[0].mac[4] 	full-duplex 	1
scalar gridfullhost.switch[0].mac[4] 	"frames/sec sent" 	0.93
scalar gridfullhost.switch[0].mac[4] 	"frames/sec rcvd" 	0
scalar gridfullhost.switch[0].mac[4] 	"bits/sec sent" 	476.16
scalar gridfullhost.switch[0].mac[4] 	"bits/sec rcvd" 	0
scalar gridfullhost.switch[0].mac[4] 	"rx channel idle (%)" 	100
scalar gridfullhost.switch[0].mac[4] 	"rx channel utilization (%)" 	0
scalar gridfullhost.switch[0].mac[4] 	"rx channel collision (%)" 	0
scalar gridfullhost.switch[0].mac[4] 	collisions 	0
scalar gridfullhost.switch[0].mac[4] 	backoffs 	0
scalar gridfullhost.switch[0].mac[4] 	"average latency" 	0
scalar gridfullhost.switch[0].mac[4] 	"max latency" 	0
scalar gridfullhost.switch[0].mac[4] 	"min latency" 	100
scalar gridfullhost.switch[0].mac[4] 	"average processing time" 	4.838718182345
scalar gridfullhost.switch[0].mac[4] 	"max processing time" 	90.000006719999
scalar gridfullhost.switch[0].mac[4] 	"min processing time" 	6.719999e-06
scalar gridfullhost.switch[0].mac[4] 	"debug time" 	90.000006719999
scalar gridfullhost.switch[0].mac[4] 	"ARP requests rcvd" 	0
scalar gridfullhost.switch[0].mac[4] 	backoff:count 	0
attr interpolationmode  none
attr title  "backoff, count"
scalar gridfullhost.switch[0].mac[4] 	collision:count 	0
attr interpolationmode  none
attr title  "collision, count"
scalar gridfullhost.switch[0].mac[4] 	droppedPkNotForUs:count 	0
attr interpolationmode  none
attr source  dropPkNotForUs
attr title  "packets dropped/not for us, count"
scalar gridfullhost.switch[0].mac[4] 	droppedPkNotForUs:sum(packetBytes) 	0
attr interpolationmode  none
attr source  dropPkNotForUs
attr title  "packets dropped/not for us, sum(packetBytes)"
scalar gridfullhost.switch[0].mac[4] 	droppedPkBitError:count 	0
attr interpolationmode  none
attr source  dropPkBitError
attr title  "packets dropped/bit error, count"
scalar gridfullhost.switch[0].mac[4] 	droppedPkBitError:sum(packetBytes) 	0
attr interpolationmode  none
attr source  dropPkBitError
attr title  "packets dropped/bit error, sum(packetBytes)"
scalar gridfullhost.switch[0].mac[4] 	droppedPkIfaceDown:count 	0
attr interpolationmode  none
attr source  dropPkIfaceDown
attr title  "packets dropped/interface down, count"
scalar gridfullhost.switch[0].mac[4] 	droppedPkIfaceDown:sum(packetBytes) 	0
attr interpolationmode  none
attr source  dropPkIfaceDown
attr title  "packets dropped/interface down, sum(packetBytes)"
scalar gridfullhost.switch[0].mac[4] 	rxPkFromHL:count 	93
attr interpolationmode  none
attr source  rxPkFromHL
attr title  "packet bytes from higher layer, count"
scalar gridfullhost.switch[0].mac[4] 	rxPkFromHL:sum(packetBytes) 	5952
attr interpolationmode  none
attr source  rxPkFromHL
attr title  "packet bytes from higher layer, sum(packetBytes)"
scalar gridfullhost.switch[0].mac[4] 	rxPausePkUnits:count 	0
attr interpolationmode  none
attr title  "pause units received, count"
scalar gridfullhost.switch[0].mac[4] 	rxPausePkUnits:sum 	0
attr interpolationmode  none
attr title  "pause units received, sum"
scalar gridfullhost.switch[0].mac[4] 	txPausePkUnits:count 	0
attr interpolationmode  none
attr title  "pause units sent, count"
scalar gridfullhost.switch[0].mac[4] 	txPausePkUnits:sum 	0
attr interpolationmode  none
attr title  "pause units sent, sum"
scalar gridfullhost.switch[0].mac[4] 	passedUpPk:count 	0
attr interpolationmode  none
attr source  packetSentToUpper
attr title  "packets passed to higher layer, count"
scalar gridfullhost.switch[0].mac[4] 	passedUpPk:sum(packetBytes) 	0
attr interpolationmode  none
attr source  packetSentToUpper
attr title  "packets passed to higher layer, sum(packetBytes)"
scalar gridfullhost.switch[0].mac[4] 	rxPkOk:count 	0
attr interpolationmode  none
attr source  rxPkOk
attr title  "packets received OK, count"
scalar gridfullhost.switch[0].mac[4] 	rxPkOk:sum(packetBytes) 	0
attr interpolationmode  none
attr source  rxPkOk
attr title  "packets received OK, sum(packetBytes)"
scalar gridfullhost.switch[0].mac[4] 	txPk:count 	93
attr interpolationmode  none
attr source  txPk
attr title  "packets transmitted, count"
scalar gridfullhost.switch[0].mac[4] 	txPk:sum(packetBytes) 	5952
attr interpolationmode  none
attr source  txPk
attr title  "packets transmitted, sum(packetBytes)"
scalar gridfullhost.switch[0].mac[5] 	"simulated time" 	100
scalar gridfullhost.switch[0].mac[5] 	full-duplex 	1
scalar gridfullhost.switch[0].mac[5] 	"frames/sec sent" 	0.93
scalar gridfullhost.switch[0].mac[5] 	"frames/sec rcvd" 	0
scalar gridfullhost.switch[0].mac[5] 	"bits/sec sent" 	476.16
scalar gridfullhost.switch[0].mac[5] 	"bits/sec rcvd" 	0
scalar gridfullhost.switch[0].mac[5] 	"rx channel idle (%)" 	100
scalar gridfullhost.switch[0].mac[5] 	"rx channel utilization (%)" 	0
scalar gridfullhost.switch[0].mac[5] 	"rx channel collision (%)" 	0
scalar gridfullhost.switch[0].mac[5] 	collisions 	0
scalar gridfullhost.switch[0].mac[5] 	backoffs 	0
scalar gridfullhost.switch[0].mac[5] 	"average latency" 	0
scalar gridfullhost.switch[0].mac[5] 	"max latency" 	0
scalar gridfullhost.switch[0].mac[5] 	"min latency" 	100
scalar gridfullhost.switch[0].mac[5] 	"average processing time" 	4.838718182345
scalar gridfullhost.switch[0].mac[5] 	"max processing time" 	90.000006719999
scalar gridfullhost.switch[0].mac[5] 	"min processing time" 	6.719999e-06
scalar gridfullhost.switch[0].mac[5] 	"debug time" 	90.000006719999
scalar gridfullhost.switch[0].mac[5] 	"ARP requests rcvd" 	0
scalar gridfullhost.switch[0].mac[5] 	backoff:count 	0
attr interpolationmode  none
attr title  "backoff, count"
scalar gridfullhost.switch[0].mac[5] 	collision:count 	0
attr interpolationmode  none
attr title  "collision, count"
scalar gridfullhost.switch[0].mac[5] 	droppedPkNotForUs:count 	0
attr interpolationmode  none
attr source  dropPkNotForUs
attr title  "packets dropped/not for us, count"
scalar gridfullhost.switch[0].mac[5] 	droppedPkNotForUs:sum(packetBytes) 	0
attr interpolationmode  none
attr source  dropPkNotForUs
attr title  "packets dropped/not for us, sum(packetBytes)"
scalar gridfullhost.switch[0].mac[5] 	droppedPkBitError:count 	0
attr interpolationmode  none
attr source  dropPkBitError
attr title  "packets dropped/bit error, count"
scalar gridfullhost.switch[0].mac[5] 	droppedPkBitError:sum(packetBytes) 	0
attr interpolationmode  none
attr source  dropPkBitError
attr title  "packets dropped/bit error, sum(packetBytes)"
scalar gridfullhost.switch[0].mac[5] 	droppedPkIfaceDown:count 	0
attr interpolationmode  none
attr source  dropPkIfaceDown
attr title  "packets dropped/interface down, count"
scalar gridfullhost.switch[0].mac[5] 	droppedPkIfaceDown:sum(packetBytes) 	0
attr interpolationmode  none
attr source  dropPkIfaceDown
attr title  "packets dropped/interface down, sum(packetBytes)"
scalar gridfullhost.switch[0].mac[5] 	rxPkFromHL:count 	93
attr interpolationmode  none
attr source  rxPkFromHL
attr title  "packet bytes from higher layer, count"
scalar gridfullhost.switch[0].mac[5] 	rxPkFromHL:sum(packetBytes) 	5952
attr interpolationmode  none
attr source  rxPkFromHL
attr title  "packet bytes from higher layer, sum(packetBytes)"
scalar gridfullhost.switch[0].mac[5] 	rxPausePkUnits:count 	0
attr interpolationmode  none
attr title  "pause units received, count"
scalar gridfullhost.switch[0].mac[5] 	rxPausePkUnits:sum 	0
attr interpolationmode  none
attr title  "pause units received, sum"
scalar gridfullhost.switch[0].mac[5] 	txPausePkUnits:count 	0
attr interpolationmode  none
attr title  "pause units sent, count"
scalar gridfullhost.switch[0].mac[5] 	txPausePkUnits:sum 	0
attr interpolationmode  none
attr title  "pause units sent, sum"
scalar gridfullhost.switch[0].mac[5] 	passedUpPk:count 	0
attr interpolationmode  none
attr source  packetSentToUpper
attr title  "packets passed to higher layer, count"
scalar gridfullhost.switch[0].mac[5] 	passedUpPk:sum(packetBytes) 	0
attr interpolationmode  none
attr source  packetSentToUpper
attr title  "packets passed to higher layer, sum(packetBytes)"
scalar gridfullhost.switch[0].mac[5] 	rxPkOk:count 	0
attr interpolationmode  none
attr source  rxPkOk
attr title  "packets received OK, count"
scalar gridfullhost.switch[0].mac[5] 	rxPkOk:sum(packetBytes) 	0
attr interpolationmode  none
attr source  rxPkOk
attr title  "packets received OK, sum(packetBytes)"
scalar gridfullhost.switch[0].mac[5] 	txPk:count 	93
attr interpolationmode  none
attr source  txPk
attr title  "packets transmitted, count"
scalar gridfullhost.switch[0].mac[5] 	txPk:sum(packetBytes) 	5952
attr interpolationmode  none
attr source  txPk
attr title  "packets transmitted, sum(packetBytes)"
scalar gridfullhost.switch[0].mac[6] 	"simulated time" 	100
scalar gridfullhost.switch[0].mac[6] 	full-duplex 	1
scalar gridfullhost.switch[0].mac[6] 	"frames/sec sent" 	0.93
scalar gridfullhost.switch[0].mac[6] 	"frames/sec rcvd" 	0
scalar gridfullhost.switch[0].mac[6] 	"bits/sec sent" 	476.16
scalar gridfullhost.switch[0].mac[6] 	"bits/sec rcvd" 	0
scalar gridfullhost.switch[0].mac[6] 	"rx channel idle (%)" 	100
scalar gridfullhost.switch[0].mac[6] 	"rx channel utilization (%)" 	0
scalar gridfullhost.switch[0].mac[6] 	"rx channel collision (%)" 	0
scalar gridfullhost.switch[0].mac[6] 	collisions 	0
scalar gridfullhost.switch[0].mac[6] 	backoffs 	0
scalar gridfullhost.switch[0].mac[6] 	"average latency" 	0
scalar gridfullhost.switch[0].mac[6] 	"max latency" 	0
scalar gridfullhost.switch[0].mac[6] 	"min latency" 	100
scalar gridfullhost.switch[0].mac[6] 	"average processing time" 	4.838718182345
scalar gridfullhost.switch[0].mac[6] 	"max processing time" 	90.000006719999
scalar gridfullhost.switch[0].mac[6] 	"min processing time" 	6.719999e-06
scalar gridfullhost.switch[0].mac[6] 	"debug time" 	90.000006719999
scalar gridfullhost.switch[0].mac[6] 	"ARP requests rcvd" 	0
scalar gridfullhost.switch[0].mac[6] 	backoff:count 	0
attr interpolationmode  none
attr title  "backoff, count"
scalar gridfullhost.switch[0].mac[6] 	collision:count 	0
attr interpolationmode  none
attr title  "collision, count"
scalar gridfullhost.switch[0].mac[6] 	droppedPkNotForUs:count 	0
attr interpolationmode  none
attr source  dropPkNotForUs
attr title  "packets dropped/not for us, count"
scalar gridfullhost.switch[0].mac[6] 	droppedPkNotForUs:sum(packetBytes) 	0
attr interpolationmode  none
attr source  dropPkNotForUs
attr title  "packets dropped/not for us, sum(packetBytes)"
scalar gridfullhost.switch[0].mac[6] 	droppedPkBitError:count 	0
attr interpolationmode  none
attr source  dropPkBitError
attr title  "packets dropped/bit error, count"
scalar gridfullhost.switch[0].mac[6] 	droppedPkBitError:sum(packetBytes) 	0
attr interpolationmode  none
attr source  dropPkBitError
attr title  "packets dropped/bit error, sum(packetBytes)"
scalar gridfullhost.switch[0].mac[6] 	droppedPkIfaceDown:count 	0
attr interpolationmode  none
attr source  dropPkIfaceDown
attr title  "packets dropped/interface down, count"
scalar gridfullhost.switch[0].mac[6] 	droppedPkIfaceDown:sum(packetBytes) 	0
attr interpolationmode  none
attr source  dropPkIfaceDown
attr title  "packets dropped/interface down, sum(packetBytes)"
scalar gridfullhost.switch[0].mac[6] 	rxPkFromHL:count 	93
attr interpolationmode  none
attr source  rxPkFromHL
attr title  "packet bytes from higher layer, count"
scalar gridfullhost.switch[0].mac[6] 	rxPkFromHL:sum(packetBytes) 	5952
attr interpolationmode  none
attr source  rxPkFromHL
attr title  "packet bytes from higher layer, sum(packetBytes)"
scalar gridfullhost.switch[0].mac[6] 	rxPausePkUnits:count 	0
attr interpolationmode  none
attr title  "pause units received, count"
scalar gridfullhost.switch[0].mac[6] 	rxPausePkUnits:sum 	0
attr interpolationmode  none
attr title  "pause units received, sum"
scalar gridfullhost.switch[0].mac[6] 	txPausePkUnits:count 	0
attr interpolationmode  none
attr title  "pause units sent, count"
scalar gridfullhost.switch[0].mac[6] 	txPausePkUnits:sum 	0
attr interpolationmode  none
attr title  "pause units sent, sum"
scalar gridfullhost.switch[0].mac[6] 	passedUpPk:count 	0
attr interpolationmode  none
attr source  packetSentToUpper
attr title  "packets passed to higher layer, count"
scalar gridfullhost.switch[0].mac[6] 	passedUpPk:sum(packetBytes) 	0
attr interpolationmode  none
attr source  packetSentToUpper
attr title  "packets passed to higher layer, sum(packetBytes)"
scalar gridfullhost.switch[0].mac[6] 	rxPkOk:count 	0
attr interpolationmode  none
attr source  rxPkOk
attr title  "packets received OK, count"
scalar gridfullhost.switch[0].mac[6] 	rxPkOk:sum(packetBytes) 	0
attr interpolationmode  none
attr source  rxPkOk
attr title  "packets received OK, sum(packetBytes)"
scalar gridfullhost.switch[0].mac[6] 	txPk:count 	93
attr interpolationmode  none
attr source  txPk
attr title  "packets transmitted, count"
scalar gridfullhost.switch[0].mac[6] 	txPk:sum(packetBytes) 	5952
attr interpolationmode  none
attr source  txPk
attr title  "packets transmitted, sum(packetBytes)"
scalar gridfullhost.switch[0].mac[7] 	"simulated time" 	100
scalar gridfullhost.switch[0].mac[7] 	full-duplex 	1
scalar gridfullhost.switch[0].mac[7] 	"frames/sec sent" 	79.82
scalar gridfullhost.switch[0].mac[7] 	"frames/sec rcvd" 	123.05
scalar gridfullhost.switch[0].mac[7] 	"bits/sec sent" 	180674.4
scalar gridfullhost.switch[0].mac[7] 	"bits/sec rcvd" 	712803.36
scalar gridfullhost.switch[0].mac[7] 	"rx channel idle (%)" 	99.27932144
scalar gridfullhost.switch[0].mac[7] 	"rx channel utilization (%)" 	0.72067856
scalar gridfullhost.switch[0].mac[7] 	"rx channel collision (%)" 	0
scalar gridfullhost.switch[0].mac[7] 	collisions 	0
scalar gridfullhost.switch[0].mac[7] 	backoffs 	0
scalar gridfullhost.switch[0].mac[7] 	"average latency" 	0
scalar gridfullhost.switch[0].mac[7] 	"max latency" 	0
scalar gridfullhost.switch[0].mac[7] 	"min latency" 	100
scalar gridfullhost.switch[0].mac[7] 	"average processing time" 	0.026353074932
scalar gridfullhost.switch[0].mac[7] 	"max processing time" 	60.000006719999
scalar gridfullhost.switch[0].mac[7] 	"min processing time" 	6.719999e-06
scalar gridfullhost.switch[0].mac[7] 	"debug time" 	60.000006719999
scalar gridfullhost.switch[0].mac[7] 	"ARP requests rcvd" 	1
scalar gridfullhost.switch[0].mac[7] 	backoff:count 	0
attr interpolationmode  none
attr title  "backoff, count"
scalar gridfullhost.switch[0].mac[7] 	collision:count 	0
attr interpolationmode  none
attr title  "collision, count"
scalar gridfullhost.switch[0].mac[7] 	droppedPkNotForUs:count 	0
attr interpolationmode  none
attr source  dropPkNotForUs
attr title  "packets dropped/not for us, count"
scalar gridfullhost.switch[0].mac[7] 	droppedPkNotForUs:sum(packetBytes) 	0
attr interpolationmode  none
attr source  dropPkNotForUs
attr title  "packets dropped/not for us, sum(packetBytes)"
scalar gridfullhost.switch[0].mac[7] 	droppedPkBitError:count 	0
attr interpolationmode  none
attr source  dropPkBitError
attr title  "packets dropped/bit error, count"
scalar gridfullhost.switch[0].mac[7] 	droppedPkBitError:sum(packetBytes) 	0
attr interpolationmode  none
attr source  dropPkBitError
attr title  "packets dropped/bit error, sum(packetBytes)"
scalar gridfullhost.switch[0].mac[7] 	droppedPkIfaceDown:count 	0
attr interpolationmode  none
attr source  dropPkIfaceDown
attr title  "packets dropped/interface down, count"
scalar gridfullhost.switch[0].mac[7] 	droppedPkIfaceDown:sum(packetBytes) 	0
attr interpolationmode  none
attr source  dropPkIfaceDown
attr title  "packets dropped/interface down, sum(packetBytes)"
scalar gridfullhost.switch[0].mac[7] 	rxPkFromHL:count 	7982
attr interpolationmode  none
attr source  rxPkFromHL
attr title  "packet bytes from higher layer, count"
scalar gridfullhost.switch[0].mac[7] 	rxPkFromHL:sum(packetBytes) 	2258430
attr interpolationmode  none
attr source  rxPkFromHL
attr title  "packet bytes from higher layer, sum(packetBytes)"
scalar gridfullhost.switch[0].mac[7] 	rxPausePkUnits:count 	0
attr interpolationmode  none
attr title  "pause units received, count"
scalar gridfullhost.switch[0].mac[7] 	rxPausePkUnits:sum 	0
attr interpolationmode  none
attr title  "pause units received, sum"
scalar gridfullhost.switch[0].mac[7] 	txPausePkUnits:count 	0
attr interpolationmode  none
attr title  "pause units sent, count"
scalar gridfullhost.switch[0].mac[7] 	txPausePkUnits:sum 	0
attr interpolationmode  none
attr title  "pause units sent, sum"
scalar gridfullhost.switch[0].mac[7] 	passedUpPk:count 	12305
attr interpolationmode  none
attr source  packetSentToUpper
attr title  "packets passed to higher layer, count"
scalar gridfullhost.switch[0].mac[7] 	passedUpPk:sum(packetBytes) 	8910042
attr interpolationmode  none
attr source  packetSentToUpper
attr title  "packets passed to higher layer, sum(packetBytes)"
scalar gridfullhost.switch[0].mac[7] 	rxPkOk:count 	12305
attr interpolationmode  none
attr source  rxPkOk
attr title  "packets received OK, count"
scalar gridfullhost.switch[0].mac[7] 	rxPkOk:sum(packetBytes) 	8910042
attr interpolationmode  none
attr source  rxPkOk
attr title  "packets received OK, sum(packetBytes)"
scalar gridfullhost.switch[0].mac[7] 	txPk:count 	7982
attr interpolationmode  none
attr source  txPk
attr title  "packets transmitted, count"
scalar gridfullhost.switch[0].mac[7] 	txPk:sum(packetBytes) 	2258430
attr interpolationmode  none
attr source  txPk
attr title  "packets transmitted, sum(packetBytes)"
scalar gridfullhost.switch[0].mac[8] 	"simulated time" 	100
scalar gridfullhost.switch[0].mac[8] 	full-duplex 	1
scalar gridfullhost.switch[0].mac[8] 	"frames/sec sent" 	0.93
scalar gridfullhost.switch[0].mac[8] 	"frames/sec rcvd" 	0
scalar gridfullhost.switch[0].mac[8] 	"bits/sec sent" 	476.16
scalar gridfullhost.switch[0].mac[8] 	"bits/sec rcvd" 	0
scalar gridfullhost.switch[0].mac[8] 	"rx channel idle (%)" 	100
scalar gridfullhost.switch[0].mac[8] 	"rx channel utilization (%)" 	0
scalar gridfullhost.switch[0].mac[8] 	"rx channel collision (%)" 	0
scalar gridfullhost.switch[0].mac[8] 	collisions 	0
scalar gridfullhost.switch[0].mac[8] 	backoffs 	0
scalar gridfullhost.switch[0].mac[8] 	"average latency" 	0
scalar gridfullhost.switch[0].mac[8] 	"max latency" 	0
scalar gridfullhost.switch[0].mac[8] 	"min latency" 	100
scalar gridfullhost.switch[0].mac[8] 	"average processing time" 	4.838718182345
scalar gridfullhost.switch[0].mac[8] 	"max processing time" 	90.000006719999
scalar gridfullhost.switch[0].mac[8] 	"min processing time" 	6.719999e-06
scalar gridfullhost.switch[0].mac[8] 	"debug time" 	90.000006719999
scalar gridfullhost.switch[0].mac[8] 	"ARP requests rcvd" 	0
scalar gridfullhost.switch[0].mac[8] 	backoff:count 	0
attr interpolationmode  none
attr title  "backoff, count"
scalar gridfullhost.switch[0].mac[8] 	collision:count 	0
attr interpolationmode  none
attr title  "collision, count"
scalar gridfullhost.switch[0].mac[8] 	droppedPkNotForUs:count 	0
attr interpolationmode  none
attr source  dropPkNotForUs
attr title  "packets dropped/not for us, count"
scalar gridfullhost.switch[0].mac[8] 	droppedPkNotForUs:sum(packetBytes) 	0
attr interpolationmode  none
attr source  dropPkNotForUs
attr title  "packets dropped/not for us, sum(packetBytes)"
scalar gridfullhost.switch[0].mac[8] 	droppedPkBitError:count 	0
attr interpolationmode  none
attr source  dropPkBitError
attr title  "packets dropped/bit error, count"
scalar gridfullhost.switch[0].mac[8] 	droppedPkBitError:sum(packetBytes) 	0
attr interpolationmode  none
attr source  dropPkBitError
attr title  "packets dropped/bit error, sum(packetBytes)"
scalar gridfullhost.switch[0].mac[8] 	droppedPkIfaceDown:count 	0
attr interpolationmode  none
attr source  dropPkIfaceDown
attr title  "packets dropped/interface down, count"
scalar gridfullhost.switch[0].mac[8] 	droppedPkIfaceDown:sum(packetBytes) 	0
attr interpolationmode  none
attr source  dropPkIfaceDown
attr title  "packets dropped/interface down, sum(packetBytes)"
scalar gridfullhost.switch[0].mac[8] 	rxPkFromHL:count 	93
attr interpolationmode  none
attr source  rxPkFromHL
attr title  "packet bytes from higher layer, count"
scalar gridfullhost.switch[0].mac[8] 	rxPkFromHL:sum(packetBytes) 	5952
attr interpolationmode  none
attr source  rxPkFromHL
attr title  "packet bytes from higher layer, sum(packetBytes)"
scalar gridfullhost.switch[0].mac[8] 	rxPausePkUnits:count 	0
attr interpolationmode  none
attr title  "pause units received, count"
scalar gridfullhost.switch[0].mac[8] 	rxPausePkUnits:sum 	0
attr interpolationmode  none
attr title  "pause units received, sum"
scalar gridfullhost.switch[0].mac[8] 	txPausePkUnits:count 	0
attr interpolationmode  none
attr title  "pause units sent, count"
scalar gridfullhost.switch[0].mac[8] 	txPausePkUnits:sum 	0
attr interpolationmode  none
attr title  "pause units sent, sum"
scalar gridfullhost.switch[0].mac[8] 	passedUpPk:count 	0
attr interpolationmode  none
attr source  packetSentToUpper
attr title  "packets passed to higher layer, count"
scalar gridfullhost.switch[0].mac[8] 	passedUpPk:sum(packetBytes) 	0
attr interpolationmode  none
attr source  packetSentToUpper
attr title  "packets passed to higher layer, sum(packetBytes)"
scalar gridfullhost.switch[0].mac[8] 	rxPkOk:count 	0
attr interpolationmode  none
attr source  rxPkOk
attr title  "packets received OK, count"
scalar gridfullhost.switch[0].mac[8] 	rxPkOk:sum(packetBytes) 	0
attr interpolationmode  none
attr source  rxPkOk
attr title  "packets received OK, sum(packetBytes)"
scalar gridfullhost.switch[0].mac[8] 	txPk:count 	93
attr interpolationmode  none
attr source  txPk
attr title  "packets transmitted, count"
scalar gridfullhost.switch[0].mac[8] 	txPk:sum(packetBytes) 	5952
attr interpolationmode  none
attr source  txPk
attr title  "packets transmitted, sum(packetBytes)"
scalar gridfullhost.switch[0].mac[9] 	"simulated time" 	100
scalar gridfullhost.switch[0].mac[9] 	full-duplex 	1
scalar gridfullhost.switch[0].mac[9] 	"frames/sec sent" 	136.14
scalar gridfullhost.switch[0].mac[9] 	"frames/sec rcvd" 	103.6
scalar gridfullhost.switch[0].mac[9] 	"bits/sec sent" 	720798.88
scalar gridfullhost.switch[0].mac[9] 	"bits/sec rcvd" 	336122.56
scalar gridfullhost.switch[0].mac[9] 	"rx channel idle (%)" 	99.65724704
scalar gridfullhost.switch[0].mac[9] 	"rx channel utilization (%)" 	0.34275296
scalar gridfullhost.switch[0].mac[9] 	"rx channel collision (%)" 	0
scalar gridfullhost.switch[0].mac[9] 	collisions 	0
scalar gridfullhost.switch[0].mac[9] 	backoffs 	0
scalar gridfullhost.switch[0].mac[9] 	"average latency" 	0
scalar gridfullhost.switch[0].mac[9] 	"max latency" 	0
scalar gridfullhost.switch[0].mac[9] 	"min latency" 	100
scalar gridfullhost.switch[0].mac[9] 	"average processing time" 	9.4962897e-05
scalar gridfullhost.switch[0].mac[9] 	"max processing time" 	0.000127034242
scalar gridfullhost.switch[0].mac[9] 	"min processing time" 	6.719999e-06
scalar gridfullhost.switch[0].mac[9] 	"debug time" 	0
scalar gridfullhost.switch[0].mac[9] 	"ARP requests rcvd" 	1
scalar gridfullhost.switch[0].mac[9] 	backoff:count 	0
attr interpolationmode  none
attr title  "backoff, count"
scalar gridfullhost.switch[0].mac[9] 	collision:count 	0
attr interpolationmode  none
attr title  "collision, count"
scalar gridfullhost.switch[0].mac[9] 	droppedPkNotForUs:count 	0
attr interpolationmode  none
attr source  dropPkNotForUs
attr title  "packets dropped/not for us, count"
scalar gridfullhost.switch[0].mac[9] 	droppedPkNotForUs:sum(packetBytes) 	0
attr interpolationmode  none
attr source  dropPkNotForUs
attr title  "packets dropped/not for us, sum(packetBytes)"
scalar gridfullhost.switch[0].mac[9] 	droppedPkBitError:count 	0
attr interpolationmode  none
attr source  dropPkBitError
attr title  "packets dropped/bit error, count"
scalar gridfullhost.switch[0].mac[9] 	droppedPkBitError:sum(packetBytes) 	0
attr interpolationmode  none
attr source  dropPkBitError
attr title  "packets dropped/bit error, sum(packetBytes)"
scalar gridfullhost.switch[0].mac[9] 	droppedPkIfaceDown:count 	0
attr interpolationmode  none
attr source  dropPkIfaceDown
attr title  "packets dropped/interface down, count"
scalar gridfullhost.switch[0].mac[9] 	droppedPkIfaceDown:sum(packetBytes) 	0
attr interpolationmode  none
attr source  dropPkIfaceDown
attr title  "packets dropped/interface down, sum(packetBytes)"
scalar gridfullhost.switch[0].mac[9] 	rxPkFromHL:count 	13614
attr interpolationmode  none
attr source  rxPkFromHL
attr title  "packet bytes from higher layer, count"
scalar gridfullhost.switch[0].mac[9] 	rxPkFromHL:sum(packetBytes) 	9009986
attr interpolationmode  none
attr source  rxPkFromHL
attr title  "packet bytes from higher layer, sum(packetBytes)"
scalar gridfullhost.switch[0].mac[9] 	rxPausePkUnits:count 	0
attr interpolationmode  none
attr title  "pause units received, count"
scalar gridfullhost.switch[0].mac[9] 	rxPausePkUnits:sum 	0
attr interpolationmode  none
attr title  "pause units received, sum"
scalar gridfullhost.switch[0].mac[9] 	txPausePkUnits:count 	0
attr interpolationmode  none
attr title  "pause units sent, count"
scalar gridfullhost.switch[0].mac[9] 	txPausePkUnits:sum 	0
attr interpolationmode  none
attr title  "pause units sent, sum"
scalar gridfullhost.switch[0].mac[9] 	passedUpPk:count 	10360
attr interpolationmode  none
attr source  packetSentToUpper
attr title  "packets passed to higher layer, count"
scalar gridfullhost.switch[0].mac[9] 	passedUpPk:sum(packetBytes) 	4201532
attr interpolationmode  none
attr source  packetSentToUpper
attr title  "packets passed to higher layer, sum(packetBytes)"
scalar gridfullhost.switch[0].mac[9] 	rxPkOk:count 	10360
attr interpolationmode  none
attr source  rxPkOk
attr title  "packets received OK, count"
scalar gridfullhost.switch[0].mac[9] 	rxPkOk:sum(packetBytes) 	4201532
attr interpolationmode  none
attr source  rxPkOk
attr title  "packets received OK, sum(packetBytes)"
scalar gridfullhost.switch[0].mac[9] 	txPk:count 	13614
attr interpolationmode  none
attr source  txPk
attr title  "packets transmitted, count"
scalar gridfullhost.switch[0].mac[9] 	txPk:sum(packetBytes) 	9009986
attr interpolationmode  none
attr source  txPk
attr title  "packets transmitted, sum(packetBytes)"
scalar gridfullhost.switch[0].mac[10] 	"simulated time" 	100
scalar gridfullhost.switch[0].mac[10] 	full-duplex 	1
scalar gridfullhost.switch[0].mac[10] 	"frames/sec sent" 	14.37
scalar gridfullhost.switch[0].mac[10] 	"frames/sec rcvd" 	27.41
scalar gridfullhost.switch[0].mac[10] 	"bits/sec sent" 	8435.04
scalar gridfullhost.switch[0].mac[10] 	"bits/sec rcvd" 	173611.52
scalar gridfullhost.switch[0].mac[10] 	"rx channel idle (%)" 	99.82463424
scalar gridfullhost.switch[0].mac[10] 	"rx channel utilization (%)" 	0.17536576
scalar gridfullhost.switch[0].mac[10] 	"rx channel collision (%)" 	0
scalar gridfullhost.switch[0].mac[10] 	collisions 	0
scalar gridfullhost.switch[0].mac[10] 	backoffs 	0
scalar gridfullhost.switch[0].mac[10] 	"average latency" 	0
scalar gridfullhost.switch[0].mac[10] 	"max latency" 	0
scalar gridfullhost.switch[0].mac[10] 	"min latency" 	100
scalar gridfullhost.switch[0].mac[10] 	"average processing time" 	0.250531382887
scalar gridfullhost.switch[0].mac[10] 	"max processing time" 	80.000006719999
scalar gridfullhost.switch[0].mac[10] 	"min processing time" 	6.719999e-06
scalar gridfullhost.switch[0].mac[10] 	"debug time" 	80.000006719999
scalar gridfullhost.switch[0].mac[10] 	"ARP requests rcvd" 	1
scalar gridfullhost.switch[0].mac[10] 	backoff:count 	0
attr interpolationmode  none
attr title  "backoff, count"
scalar gridfullhost.switch[0].mac[10] 	collision:count 	0
attr interpolationmode  none
attr title  "collision, count"
scalar gridfullhost.switch[0].mac[10] 	droppedPkNotForUs:count 	0
attr interpolationmode  none
attr source  dropPkNotForUs
attr title  "packets dropped/not for us, count"
scalar gridfullhost.switch[0].mac[10] 	droppedPkNotForUs:sum(packetBytes) 	0
attr interpolationmode  none
attr source  dropPkNotForUs
attr title  "packets dropped/not for us, sum(packetBytes)"
scalar gridfullhost.switch[0].mac[10] 	droppedPkBitError:count 	0
attr interpolationmode  none
attr source  dropPkBitError
attr title  "packets dropped/bit error, count"
scalar gridfullhost.switch[0].mac[10] 	droppedPkBitError:sum(packetBytes) 	0
attr interpolationmode  none
attr source  dropPkBitError
attr title  "packets dropped/bit error, sum(packetBytes)"
scalar gridfullhost.switch[0].mac[10] 	droppedPkIfaceDown:count 	0
attr interpolationmode  none
attr source  dropPkIfaceDown
attr title  "packets dropped/interface down, count"
scalar gridfullhost.switch[0].mac[10] 	droppedPkIfaceDown:sum(packetBytes) 	0
attr interpolationmode  none
attr source  dropPkIfaceDown
attr title  "packets dropped/interface down, sum(packetBytes)"
scalar gridfullhost.switch[0].mac[10] 	rxPkFromHL:count 	1437
attr interpolationmode  none
attr source  rxPkFromHL
attr title  "packet bytes from higher layer, count"
scalar gridfullhost.switch[0].mac[10] 	rxPkFromHL:sum(packetBytes) 	105438
attr interpolationmode  none
attr source  rxPkFromHL
attr title  "packet bytes from higher layer, sum(packetBytes)"
scalar gridfullhost.switch[0].mac[10] 	rxPausePkUnits:count 	0
attr interpolationmode  none
attr title  "pause units received, count"
scalar gridfullhost.switch[0].mac[10] 	rxPausePkUnits:sum 	0
attr interpolationmode  none
attr title  "pause units received, sum"
scalar gridfullhost.switch[0].mac[10] 	txPausePkUnits:count 	0
attr interpolationmode  none
attr title  "pause units sent, count"
scalar gridfullhost.switch[0].mac[10] 	txPausePkUnits:sum 	0
attr interpolationmode  none
attr title  "pause units sent, sum"
scalar gridfullhost.switch[0].mac[10] 	passedUpPk:count 	2741
attr interpolationmode  none
attr source  packetSentToUpper
attr title  "packets passed to higher layer, count"
scalar gridfullhost.switch[0].mac[10] 	passedUpPk:sum(packetBytes) 	2170144
attr interpolationmode  none
attr source  packetSentToUpper
attr title  "packets passed to higher layer, sum(packetBytes)"
scalar gridfullhost.switch[0].mac[10] 	rxPkOk:count 	2741
attr interpolationmode  none
attr source  rxPkOk
attr title  "packets received OK, count"
scalar gridfullhost.switch[0].mac[10] 	rxPkOk:sum(packetBytes) 	2170144
attr interpolationmode  none
attr source  rxPkOk
attr title  "packets received OK, sum(packetBytes)"
scalar gridfullhost.switch[0].mac[10] 	txPk:count 	1437
attr interpolationmode  none
attr source  txPk
attr title  "packets transmitted, count"
scalar gridfullhost.switch[0].mac[10] 	txPk:sum(packetBytes) 	105438
attr interpolationmode  none
attr source  txPk
attr title  "packets transmitted, sum(packetBytes)"
scalar gridfullhost.switch[0].mac[11] 	"simulated time" 	100
scalar gridfullhost.switch[0].mac[11] 	full-duplex 	1
scalar gridfullhost.switch[0].mac[11] 	"frames/sec sent" 	14.45
scalar gridfullhost.switch[0].mac[11] 	"frames/sec rcvd" 	27.11
scalar gridfullhost.switch[0].mac[11] 	"bits/sec sent" 	8482.4
scalar gridfullhost.switch[0].mac[11] 	"bits/sec rcvd" 	171710.72
scalar gridfullhost.switch[0].mac[11] 	"rx channel idle (%)" 	99.82655424
scalar gridfullhost.switch[0].mac[11] 	"rx channel utilization (%)" 	0.17344576
scalar gridfullhost.switch[0].mac[11] 	"rx channel collision (%)" 	0
scalar gridfullhost.switch[0].mac[11] 	collisions 	0
scalar gridfullhost.switch[0].mac[11] 	backoffs 	0
scalar gridfullhost.switch[0].mac[11] 	"average latency" 	0
scalar gridfullhost.switch[0].mac[11] 	"max latency" 	0
scalar gridfullhost.switch[0].mac[11] 	"min latency" 	100
scalar gridfullhost.switch[0].mac[11] 	"average processing time" 	0.249144462944
scalar gridfullhost.switch[0].mac[11] 	"max processing time" 	80.000006719999
scalar gridfullhost.switch[0].mac[11] 	"min processing time" 	6.719999e-06
scalar gridfullhost.switch[0].mac[11] 	"debug time" 	80.000006719999
scalar gridfullhost.switch[0].mac[11] 	"ARP requests rcvd" 	1
scalar gridfullhost.switch[0].mac[11] 	backoff:count 	0
attr interpolationmode  none
attr title  "backoff, count"
scalar gridfullhost.switch[0].mac[11] 	collision:count 	0
attr interpolationmode  none
attr title  "collision, count"
scalar gridfullhost.switch[0].mac[11] 	droppedPkNotForUs:count 	0
attr interpolationmode  none
attr source  dropPkNotForUs
attr title  "packets dropped/not for us, count"
scalar gridfullhost.switch[0].mac[11] 	droppedPkNotForUs:sum(packetBytes) 	0
attr interpolationmode  none
attr source  dropPkNotForUs
attr title  "packets dropped/not for us, sum(packetBytes)"
scalar gridfullhost.switch[0].mac[11] 	droppedPkBitError:count 	0
attr interpolationmode  none
attr source  dropPkBitError
attr title  "packets dropped/bit error, count"
scalar gridfullhost.switch[0].mac[11] 	droppedPkBitError:sum(packetBytes) 	0
attr interpolationmode  none
attr source  dropPkBitError
attr title  "packets dropped/bit error, sum(packetBytes)"
scalar gridfullhost.switch[0].mac[11] 	droppedPkIfaceDown:count 	0
attr interpolationmode  none
attr source  dropPkIfaceDown
attr title  "packets dropped/interface down, count"
scalar gridfullhost.switch[0].mac[11] 	droppedPkIfaceDown:sum(packetBytes) 	0
attr interpolationmode  none
attr source  dropPkIfaceDown
attr title  "packets dropped/interface down, sum(packetBytes)"
scalar gridfullhost.switch[0].mac[11] 	rxPkFromHL:count 	1445
attr interpolationmode  none
attr source  rxPkFromHL
attr title  "packet bytes from higher layer, count"
scalar gridfullhost.switch[0].mac[11] 	rxPkFromHL:sum(packetBytes) 	106030
attr interpolationmode  none
attr source  rxPkFromHL
attr title  "packet bytes from higher layer, sum(packetBytes)"
scalar gridfullhost.switch[0].mac[11] 	rxPausePkUnits:count 	0
attr interpolationmode  none
attr title  "pause units received, count"
scalar gridfullhost.switch[0].mac[11] 	rxPausePkUnits:sum 	0
attr interpolationmode  none
attr title  "pause units received, sum"
scalar gridfullhost.switch[0].mac[11] 	txPausePkUnits:count 	0
attr interpolationmode  none
attr title  "pause units sent, count"
scalar gridfullhost.switch[0].mac[11] 	txPausePkUnits:sum 	0
attr interpolationmode  none
attr title  "pause units sent, sum"
scalar gridfullhost.switch[0].mac[11] 	passedUpPk:count 	2711
attr interpolationmode  none
attr source  packetSentToUpper
attr title  "packets passed to higher layer, count"
scalar gridfullhost.switch[0].mac[11] 	passedUpPk:sum(packetBytes) 	2146384
attr interpolationmode  none
attr source  packetSentToUpper
attr title  "packets passed to higher layer, sum(packetBytes)"
scalar gridfullhost.switch[0].mac[11] 	rxPkOk:count 	2711
attr interpolationmode  none
attr source  rxPkOk
attr title  "packets received OK, count"
scalar gridfullhost.switch[0].mac[11] 	rxPkOk:sum(packetBytes) 	2146384
attr interpolationmode  none
attr source  rxPkOk
attr title  "packets received OK, sum(packetBytes)"
scalar gridfullhost.switch[0].mac[11] 	txPk:count 	1445
attr interpolationmode  none
attr source  txPk
attr title  "packets transmitted, count"
scalar gridfullhost.switch[0].mac[11] 	txPk:sum(packetBytes) 	106030
attr interpolationmode  none
attr source  txPk
attr title  "packets transmitted, sum(packetBytes)"
scalar gridfullhost.switch[0].mac[12] 	"simulated time" 	100
scalar gridfullhost.switch[0].mac[12] 	full-duplex 	1
scalar gridfullhost.switch[0].mac[12] 	"frames/sec sent" 	0.93
scalar gridfullhost.switch[0].mac[12] 	"frames/sec rcvd" 	0
scalar gridfullhost.switch[0].mac[12] 	"bits/sec sent" 	476.16
scalar gridfullhost.switch[0].mac[12] 	"bits/sec rcvd" 	0
scalar gridfullhost.switch[0].mac[12] 	"rx channel idle (%)" 	100
scalar gridfullhost.switch[0].mac[12] 	"rx channel utilization (%)" 	0
scalar gridfullhost.switch[0].mac[12] 	"rx channel collision (%)" 	0
scalar gridfullhost.switch[0].mac[12] 	collisions 	0
scalar gridfullhost.switch[0].mac[12] 	backoffs 	0
scalar gridfullhost.switch[0].mac[12] 	"average latency" 	0
scalar gridfullhost.switch[0].mac[12] 	"max latency" 	0
scalar gridfullhost.switch[0].mac[12] 	"min latency" 	100
scalar gridfullhost.switch[0].mac[12] 	"average processing time" 	4.838718182345
scalar gridfullhost.switch[0].mac[12] 	"max processing time" 	90.000006719999
scalar gridfullhost.switch[0].mac[12] 	"min processing time" 	6.719999e-06
scalar gridfullhost.switch[0].mac[12] 	"debug time" 	90.000006719999
scalar gridfullhost.switch[0].mac[12] 	"ARP requests rcvd" 	0
scalar gridfullhost.switch[0].mac[12] 	backoff:count 	0
attr interpolationmode  none
attr title  "backoff, count"
scalar gridfullhost.switch[0].mac[12] 	collision:count 	0
attr interpolationmode  none
attr title  "collision, count"
scalar gridfullhost.switch[0].mac[12] 	droppedPkNotForUs:count 	0
attr interpolationmode  none
attr source  dropPkNotForUs
attr title  "packets dropped/not for us, count"
scalar gridfullhost.switch[0].mac[12] 	droppedPkNotForUs:sum(packetBytes) 	0
attr interpolationmode  none
attr source  dropPkNotForUs
attr title  "packets dropped/not for us, sum(packetBytes)"
scalar gridfullhost.switch[0].mac[12] 	droppedPkBitError:count 	0
attr interpolationmode  none
attr source  dropPkBitError
attr title  "packets dropped/bit error, count"
scalar gridfullhost.switch[0].mac[12] 	droppedPkBitError:sum(packetBytes) 	0
attr interpolationmode  none
attr source  dropPkBitError
attr title  "packets dropped/bit error, sum(packetBytes)"
scalar gridfullhost.switch[0].mac[12] 	droppedPkIfaceDown:count 	0
attr interpolationmode  none
attr source  dropPkIfaceDown
attr title  "packets dropped/interface down, count"
scalar gridfullhost.switch[0].mac[12] 	droppedPkIfaceDown:sum(packetBytes) 	0
attr interpolationmode  none
attr source  dropPkIfaceDown
attr title  "packets dropped/interface down, sum(packetBytes)"
scalar gridfullhost.switch[0].mac[12] 	rxPkFromHL:count 	93
attr interpolationmode  none
attr source  rxPkFromHL
attr title  "packet bytes from higher layer, count"
scalar gridfullhost.switch[0].mac[12] 	rxPkFromHL:sum(packetBytes) 	5952
attr interpolationmode  none
attr source  rxPkFromHL
attr title  "packet bytes from higher layer, sum(packetBytes)"
scalar gridfullhost.switch[0].mac[12] 	rxPausePkUnits:count 	0
attr interpolationmode  none
attr title  "pause units received, count"
scalar gridfullhost.switch[0].mac[12] 	rxPausePkUnits:sum 	0
attr interpolationmode  none
attr title  "pause units received, sum"
scalar gridfullhost.switch[0].mac[12] 	txPausePkUnits:count 	0
attr interpolationmode  none
attr title  "pause units sent, count"
scalar gridfullhost.switch[0].mac[12] 	txPausePkUnits:sum 	0
attr interpolationmode  none
attr title  "pause units sent, sum"
scalar gridfullhost.switch[0].mac[12] 	passedUpPk:count 	0
attr interpolationmode  none
attr source  packetSentToUpper
attr title  "packets passed to higher layer, count"
scalar gridfullhost.switch[0].mac[12] 	passedUpPk:sum(packetBytes) 	0
attr interpolationmode  none
attr source  packetSentToUpper
attr title  "packets passed to higher layer, sum(packetBytes)"
scalar gridfullhost.switch[0].mac[12] 	rxPkOk:count 	0
attr interpolationmode  none
attr source  rxPkOk
attr title  "packets received OK, count"
scalar gridfullhost.switch[0].mac[12] 	rxPkOk:sum(packetBytes) 	0
attr interpolationmode  none
attr source  rxPkOk
attr title  "packets received OK, sum(packetBytes)"
scalar gridfullhost.switch[0].mac[12] 	txPk:count 	93
attr interpolationmode  none
attr source  txPk
attr title  "packets transmitted, count"
scalar gridfullhost.switch[0].mac[12] 	txPk:sum(packetBytes) 	5952
attr interpolationmode  none
attr source  txPk
attr title  "packets transmitted, sum(packetBytes)"
scalar gridfullhost.switch[0].mac[13] 	"simulated time" 	100
scalar gridfullhost.switch[0].mac[13] 	full-duplex 	1
scalar gridfullhost.switch[0].mac[13] 	"frames/sec sent" 	4.19
scalar gridfullhost.switch[0].mac[13] 	"frames/sec rcvd" 	6.57
scalar gridfullhost.switch[0].mac[13] 	"bits/sec sent" 	2407.68
scalar gridfullhost.switch[0].mac[13] 	"bits/sec rcvd" 	41569.28
scalar gridfullhost.switch[0].mac[13] 	"rx channel idle (%)" 	99.95801024
scalar gridfullhost.switch[0].mac[13] 	"rx channel utilization (%)" 	0.04198976
scalar gridfullhost.switch[0].mac[13] 	"rx channel collision (%)" 	0
scalar gridfullhost.switch[0].mac[13] 	collisions 	0
scalar gridfullhost.switch[0].mac[13] 	backoffs 	0
scalar gridfullhost.switch[0].mac[13] 	"average latency" 	0
scalar gridfullhost.switch[0].mac[13] 	"max latency" 	0
scalar gridfullhost.switch[0].mac[13] 	"min latency" 	100
scalar gridfullhost.switch[0].mac[13] 	"average processing time" 	1.073994978608
scalar gridfullhost.switch[0].mac[13] 	"max processing time" 	90.000006719999
scalar gridfullhost.switch[0].mac[13] 	"min processing time" 	6.719999e-06
scalar gridfullhost.switch[0].mac[13] 	"debug time" 	90.000006719999
scalar gridfullhost.switch[0].mac[13] 	"ARP requests rcvd" 	1
scalar gridfullhost.switch[0].mac[13] 	backoff:count 	0
attr interpolationmode  none
attr title  "backoff, count"
scalar gridfullhost.switch[0].mac[13] 	collision:count 	0
attr interpolationmode  none
attr title  "collision, count"
scalar gridfullhost.switch[0].mac[13] 	droppedPkNotForUs:count 	0
attr interpolationmode  none
attr source  dropPkNotForUs
attr title  "packets dropped/not for us, count"
scalar gridfullhost.switch[0].mac[13] 	droppedPkNotForUs:sum(packetBytes) 	0
attr interpolationmode  none
attr source  dropPkNotForUs
attr title  "packets dropped/not for us, sum(packetBytes)"
scalar gridfullhost.switch[0].mac[13] 	droppedPkBitError:count 	0
attr interpolationmode  none
attr source  dropPkBitError
attr title  "packets dropped/bit error, count"
scalar gridfullhost.switch[0].mac[13] 	droppedPkBitError:sum(packetBytes) 	0
attr interpolationmode  none
attr source  dropPkBitError
attr title  "packets dropped/bit error, sum(packetBytes)"
scalar gridfullhost.switch[0].mac[13] 	droppedPkIfaceDown:count 	0
attr interpolationmode  none
attr source  dropPkIfaceDown
attr title  "packets dropped/interface down, count"
scalar gridfullhost.switch[0].mac[13] 	droppedPkIfaceDown:sum(packetBytes) 	0
attr interpolationmode  none
attr source  dropPkIfaceDown
attr title  "packets dropped/interface down, sum(packetBytes)"
scalar gridfullhost.switch[0].mac[13] 	rxPkFromHL:count 	419
attr interpolationmode  none
attr source  rxPkFromHL
attr title  "packet bytes from higher layer, count"
scalar gridfullhost.switch[0].mac[13] 	rxPkFromHL:sum(packetBytes) 	30096
attr interpolationmode  none
attr source  rxPkFromHL
attr title  "packet bytes from higher layer, sum(packetBytes)"
scalar gridfullhost.switch[0].mac[13] 	rxPausePkUnits:count 	0
attr interpolationmode  none
attr title  "pause units received, count"
scalar gridfullhost.switch[0].mac[13] 	rxPausePkUnits:sum 	0
attr interpolationmode  none
attr title  "pause units received, sum"
scalar gridfullhost.switch[0].mac[13] 	txPausePkUnits:count 	0
attr interpolationmode  none
attr title  "pause units sent, count"
scalar gridfullhost.switch[0].mac[13] 	txPausePkUnits:sum 	0
attr interpolationmode  none
attr title  "pause units sent, sum"
scalar gridfullhost.switch[0].mac[13] 	passedUpPk:count 	657
attr interpolationmode  none
attr source  packetSentToUpper
attr title  "packets passed to higher layer, count"
scalar gridfullhost.switch[0].mac[13] 	passedUpPk:sum(packetBytes) 	519616
attr interpolationmode  none
attr source  packetSentToUpper
attr title  "packets passed to higher layer, sum(packetBytes)"
scalar gridfullhost.switch[0].mac[13] 	rxPkOk:count 	657
attr interpolationmode  none
attr source  rxPkOk
attr title  "packets received OK, count"
scalar gridfullhost.switch[0].mac[13] 	rxPkOk:sum(packetBytes) 	519616
attr interpolationmode  none
attr source  rxPkOk
attr title  "packets received OK, sum(packetBytes)"
scalar gridfullhost.switch[0].mac[13] 	txPk:count 	419
attr interpolationmode  none
attr source  txPk
attr title  "packets transmitted, count"
scalar gridfullhost.switch[0].mac[13] 	txPk:sum(packetBytes) 	30096
attr interpolationmode  none
attr source  txPk
attr title  "packets transmitted, sum(packetBytes)"
scalar gridfullhost.switch[0].mac[14] 	"simulated time" 	100
scalar gridfullhost.switch[0].mac[14] 	full-duplex 	1
scalar gridfullhost.switch[0].mac[14] 	"frames/sec sent" 	0.93
scalar gridfullhost.switch[0].mac[14] 	"frames/sec rcvd" 	0
scalar gridfullhost.switch[0].mac[14] 	"bits/sec sent" 	476.16
scalar gridfullhost.switch[0].mac[14] 	"bits/sec rcvd" 	0
scalar gridfullhost.switch[0].mac[14] 	"rx channel idle (%)" 	100
scalar gridfullhost.switch[0].mac[14] 	"rx channel utilization (%)" 	0
scalar gridfullhost.switch[0].mac[14] 	"rx channel collision (%)" 	0
scalar gridfullhost.switch[0].mac[14] 	collisions 	0
scalar gridfullhost.switch[0].mac[14] 	backoffs 	0
scalar gridfullhost.switch[0].mac[14] 	"average latency" 	0
scalar gridfullhost.switch[0].mac[14] 	"max latency" 	0
scalar gridfullhost.switch[0].mac[14] 	"min latency" 	100
scalar gridfullhost.switch[0].mac[14] 	"average processing time" 	4.838718182345
scalar gridfullhost.switch[0].mac[14] 	"max processing time" 	90.000006719999
scalar gridfullhost.switch[0].mac[14] 	"min processing time" 	6.719999e-06
scalar gridfullhost.switch[0].mac[14] 	"debug time" 	90.000006719999
scalar gridfullhost.switch[0].mac[14] 	"ARP requests rcvd" 	0
scalar gridfullhost.switch[0].mac[14] 	backoff:count 	0
attr interpolationmode  none
attr title  "backoff, count"
scalar gridfullhost.switch[0].mac[14] 	collision:count 	0
attr interpolationmode  none
attr title  "collision, count"
scalar gridfullhost.switch[0].mac[14] 	droppedPkNotForUs:count 	0
attr interpolationmode  none
attr source  dropPkNotForUs
attr title  "packets dropped/not for us, count"
scalar gridfullhost.switch[0].mac[14] 	droppedPkNotForUs:sum(packetBytes) 	0
attr interpolationmode  none
attr source  dropPkNotForUs
attr title  "packets dropped/not for us, sum(packetBytes)"
scalar gridfullhost.switch[0].mac[14] 	droppedPkBitError:count 	0
attr interpolationmode  none
attr source  dropPkBitError
attr title  "packets dropped/bit error, count"
scalar gridfullhost.switch[0].mac[14] 	droppedPkBitError:sum(packetBytes) 	0
attr interpolationmode  none
attr source  dropPkBitError
attr title  "packets dropped/bit error, sum(packetBytes)"
scalar gridfullhost.switch[0].mac[14] 	droppedPkIfaceDown:count 	0
attr interpolationmode  none
attr source  dropPkIfaceDown
attr title  "packets dropped/interface down, count"
scalar gridfullhost.switch[0].mac[14] 	droppedPkIfaceDown:sum(packetBytes) 	0
attr interpolationmode  none
attr source  dropPkIfaceDown
attr title  "packets dropped/interface down, sum(packetBytes)"
scalar gridfullhost.switch[0].mac[14] 	rxPkFromHL:count 	93
attr interpolationmode  none
attr source  rxPkFromHL
attr title  "packet bytes from higher layer, count"
scalar gridfullhost.switch[0].mac[14] 	rxPkFromHL:sum(packetBytes) 	5952
attr interpolationmode  none
attr source  rxPkFromHL
attr title  "packet bytes from higher layer, sum(packetBytes)"
scalar gridfullhost.switch[0].mac[14] 	rxPausePkUnits:count 	0
attr interpolationmode  none
attr title  "pause units received, count"
scalar gridfullhost.switch[0].mac[14] 	rxPausePkUnits:sum 	0
attr interpolationmode  none
attr title  "pause units received, sum"
scalar gridfullhost.switch[0].mac[14] 	txPausePkUnits:count 	0
attr interpolationmode  none
attr title  "pause units sent, count"
scalar gridfullhost.switch[0].mac[14] 	txPausePkUnits:sum 	0
attr interpolationmode  none
attr title  "pause units sent, sum"
scalar gridfullhost.switch[0].mac[14] 	passedUpPk:count 	0
attr interpolationmode  none
attr source  packetSentToUpper
attr title  "packets passed to higher layer, count"
scalar gridfullhost.switch[0].mac[14] 	passedUpPk:sum(packetBytes) 	0
attr interpolationmode  none
attr source  packetSentToUpper
attr title  "packets passed to higher layer, sum(packetBytes)"
scalar gridfullhost.switch[0].mac[14] 	rxPkOk:count 	0
attr interpolationmode  none
attr source  rxPkOk
attr title  "packets received OK, count"
scalar gridfullhost.switch[0].mac[14] 	rxPkOk:sum(packetBytes) 	0
attr interpolationmode  none
attr source  rxPkOk
attr title  "packets received OK, sum(packetBytes)"
scalar gridfullhost.switch[0].mac[14] 	txPk:count 	93
attr interpolationmode  none
attr source  txPk
attr title  "packets transmitted, count"
scalar gridfullhost.switch[0].mac[14] 	txPk:sum(packetBytes) 	5952
attr interpolationmode  none
attr source  txPk
attr title  "packets transmitted, sum(packetBytes)"
scalar gridfullhost.switch[0].mac[15] 	"simulated time" 	100
scalar gridfullhost.switch[0].mac[15] 	full-duplex 	1
scalar gridfullhost.switch[0].mac[15] 	"frames/sec sent" 	54.47
scalar gridfullhost.switch[0].mac[15] 	"frames/sec rcvd" 	107.46
scalar gridfullhost.switch[0].mac[15] 	"bits/sec sent" 	32186.24
scalar gridfullhost.switch[0].mac[15] 	"bits/sec rcvd" 	680750.08
scalar gridfullhost.switch[0].mac[15] 	"rx channel idle (%)" 	99.31237248
scalar gridfullhost.switch[0].mac[15] 	"rx channel utilization (%)" 	0.68762752
scalar gridfullhost.switch[0].mac[15] 	"rx channel collision (%)" 	0
scalar gridfullhost.switch[0].mac[15] 	collisions 	0
scalar gridfullhost.switch[0].mac[15] 	backoffs 	0
scalar gridfullhost.switch[0].mac[15] 	"average latency" 	0
scalar gridfullhost.switch[0].mac[15] 	"max latency" 	0
scalar gridfullhost.switch[0].mac[15] 	"min latency" 	100
scalar gridfullhost.switch[0].mac[15] 	"average processing time" 	9.508697e-06
scalar gridfullhost.switch[0].mac[15] 	"max processing time" 	1.1492164e-05
scalar gridfullhost.switch[0].mac[15] 	"min processing time" 	6.719999e-06
scalar gridfullhost.switch[0].mac[15] 	"debug time" 	0
scalar gridfullhost.switch[0].mac[15] 	"ARP requests rcvd" 	2
scalar gridfullhost.switch[0].mac[15] 	backoff:count 	0
attr interpolationmode  none
attr title  "backoff, count"
scalar gridfullhost.switch[0].mac[15] 	collision:count 	0
attr interpolationmode  none
attr title  "collision, count"
scalar gridfullhost.switch[0].mac[15] 	droppedPkNotForUs:count 	0
attr interpolationmode  none
attr source  dropPkNotForUs
attr title  "packets dropped/not for us, count"
scalar gridfullhost.switch[0].mac[15] 	droppedPkNotForUs:sum(packetBytes) 	0
attr interpolationmode  none
attr source  dropPkNotForUs
attr title  "packets dropped/not for us, sum(packetBytes)"
scalar gridfullhost.switch[0].mac[15] 	droppedPkBitError:count 	0
attr interpolationmode  none
attr source  dropPkBitError
attr title  "packets dropped/bit error, count"
scalar gridfullhost.switch[0].mac[15] 	droppedPkBitError:sum(packetBytes) 	0
attr interpolationmode  none
attr source  dropPkBitError
attr title  "packets dropped/bit error, sum(packetBytes)"
scalar gridfullhost.switch[0].mac[15] 	droppedPkIfaceDown:count 	0
attr interpolationmode  none
attr source  dropPkIfaceDown
attr title  "packets dropped/interface down, count"
scalar gridfullhost.switch[0].mac[15] 	droppedPkIfaceDown:sum(packetBytes) 	0
attr interpolationmode  none
attr source  dropPkIfaceDown
attr title  "packets dropped/interface down, sum(packetBytes)"
scalar gridfullhost.switch[0].mac[15] 	rxPkFromHL:count 	5447
attr interpolationmode  none
attr source  rxPkFromHL
attr title  "packet bytes from higher layer, count"
scalar gridfullhost.switch[0].mac[15] 	rxPkFromHL:sum(packetBytes) 	402328
attr interpolationmode  none
attr source  rxPkFromHL
attr title  "packet bytes from higher layer, sum(packetBytes)"
scalar gridfullhost.switch[0].mac[15] 	rxPausePkUnits:count 	0
attr interpolationmode  none
attr title  "pause units received, count"
scalar gridfullhost.switch[0].mac[15] 	rxPausePkUnits:sum 	0
attr interpolationmode  none
attr title  "pause units received, sum"
scalar gridfullhost.switch[0].mac[15] 	txPausePkUnits:count 	0
attr interpolationmode  none
attr title  "pause units sent, count"
scalar gridfullhost.switch[0].mac[15] 	txPausePkUnits:sum 	0
attr interpolationmode  none
attr title  "pause units sent, sum"
scalar gridfullhost.switch[0].mac[15] 	passedUpPk:count 	10746
attr interpolationmode  none
attr source  packetSentToUpper
attr title  "packets passed to higher layer, count"
scalar gridfullhost.switch[0].mac[15] 	passedUpPk:sum(packetBytes) 	8509376
attr interpolationmode  none
attr source  packetSentToUpper
attr title  "packets passed to higher layer, sum(packetBytes)"
scalar gridfullhost.switch[0].mac[15] 	rxPkOk:count 	10746
attr interpolationmode  none
attr source  rxPkOk
attr title  "packets received OK, count"
scalar gridfullhost.switch[0].mac[15] 	rxPkOk:sum(packetBytes) 	8509376
attr interpolationmode  none
attr source  rxPkOk
attr title  "packets received OK, sum(packetBytes)"
scalar gridfullhost.switch[0].mac[15] 	txPk:count 	5447
attr interpolationmode  none
attr source  txPk
attr title  "packets transmitted, count"
scalar gridfullhost.switch[0].mac[15] 	txPk:sum(packetBytes) 	402328
attr interpolationmode  none
attr source  txPk
attr title  "packets transmitted, sum(packetBytes)"
scalar gridfullhost.switch[0].mac[16] 	"simulated time" 	100
scalar gridfullhost.switch[0].mac[16] 	full-duplex 	1
scalar gridfullhost.switch[0].mac[16] 	"frames/sec sent" 	0.93
scalar gridfullhost.switch[0].mac[16] 	"frames/sec rcvd" 	0
scalar gridfullhost.switch[0].mac[16] 	"bits/sec sent" 	476.16
scalar gridfullhost.switch[0].mac[16] 	"bits/sec rcvd" 	0
scalar gridfullhost.switch[0].mac[16] 	"rx channel idle (%)" 	100
scalar gridfullhost.switch[0].mac[16] 	"rx channel utilization (%)" 	0
scalar gridfullhost.switch[0].mac[16] 	"rx channel collision (%)" 	0
scalar gridfullhost.switch[0].mac[16] 	collisions 	0
scalar gridfullhost.switch[0].mac[16] 	backoffs 	0
scalar gridfullhost.switch[0].mac[16] 	"average latency" 	0
scalar gridfullhost.switch[0].mac[16] 	"max latency" 	0
scalar gridfullhost.switch[0].mac[16] 	"min latency" 	100
scalar gridfullhost.switch[0].mac[16] 	"average processing time" 	4.838718182345
scalar gridfullhost.switch[0].mac[16] 	"max processing time" 	90.000006719999
scalar gridfullhost.switch[0].mac[16] 	"min processing time" 	6.719999e-06
scalar gridfullhost.switch[0].mac[16] 	"debug time" 	90.000006719999
scalar gridfullhost.switch[0].mac[16] 	"ARP requests rcvd" 	0
scalar gridfullhost.switch[0].mac[16] 	backoff:count 	0
attr interpolationmode  none
attr title  "backoff, count"
scalar gridfullhost.switch[0].mac[16] 	collision:count 	0
attr interpolationmode  none
attr title  "collision, count"
scalar gridfullhost.switch[0].mac[16] 	droppedPkNotForUs:count 	0
attr interpolationmode  none
attr source  dropPkNotForUs
attr title  "packets dropped/not for us, count"
scalar gridfullhost.switch[0].mac[16] 	droppedPkNotForUs:sum(packetBytes) 	0
attr interpolationmode  none
attr source  dropPkNotForUs
attr title  "packets dropped/not for us, sum(packetBytes)"
scalar gridfullhost.switch[0].mac[16] 	droppedPkBitError:count 	0
attr interpolationmode  none
attr source  dropPkBitError
attr title  "packets dropped/bit error, count"
scalar gridfullhost.switch[0].mac[16] 	droppedPkBitError:sum(packetBytes) 	0
attr interpolationmode  none
attr source  dropPkBitError
attr title  "packets dropped/bit error, sum(packetBytes)"
scalar gridfullhost.switch[0].mac[16] 	droppedPkIfaceDown:count 	0
attr interpolationmode  none
attr source  dropPkIfaceDown
attr title  "packets dropped/interface down, count"
scalar gridfullhost.switch[0].mac[16] 	droppedPkIfaceDown:sum(packetBytes) 	0
attr interpolationmode  none
attr source  dropPkIfaceDown
attr title  "packets dropped/interface down, sum(packetBytes)"
scalar gridfullhost.switch[0].mac[16] 	rxPkFromHL:count 	93
attr interpolationmode  none
attr source  rxPkFromHL
attr title  "packet bytes from higher layer, count"
scalar gridfullhost.switch[0].mac[16] 	rxPkFromHL:sum(packetBytes) 	5952
attr interpolationmode  none
attr source  rxPkFromHL
attr title  "packet bytes from higher layer, sum(packetBytes)"
scalar gridfullhost.switch[0].mac[16] 	rxPausePkUnits:count 	0
attr interpolationmode  none
attr title  "pause units received, count"
scalar gridfullhost.switch[0].mac[16] 	rxPausePkUnits:sum 	0
attr interpolationmode  none
attr title  "pause units received, sum"
scalar gridfullhost.switch[0].mac[16] 	txPausePkUnits:count 	0
attr interpolationmode  none
attr title  "pause units sent, count"
scalar gridfullhost.switch[0].mac[16] 	txPausePkUnits:sum 	0
attr interpolationmode  none
attr title  "pause units sent, sum"
scalar gridfullhost.switch[0].mac[16] 	passedUpPk:count 	0
attr interpolationmode  none
attr source  packetSentToUpper
attr title  "packets passed to higher layer, count"
scalar gridfullhost.switch[0].mac[16] 	passedUpPk:sum(packetBytes) 	0
attr interpolationmode  none
attr source  packetSentToUpper
attr title  "packets passed to higher layer, sum(packetBytes)"
scalar gridfullhost.switch[0].mac[16] 	rxPkOk:count 	0
attr interpolationmode  none
attr source  rxPkOk
attr title  "packets received OK, count"
scalar gridfullhost.switch[0].mac[16] 	rxPkOk:sum(packetBytes) 	0
attr interpolationmode  none
attr source  rxPkOk
attr title  "packets received OK, sum(packetBytes)"
scalar gridfullhost.switch[0].mac[16] 	txPk:count 	93
attr interpolationmode  none
attr source  txPk
attr title  "packets transmitted, count"
scalar gridfullhost.switch[0].mac[16] 	txPk:sum(packetBytes) 	5952
attr interpolationmode  none
attr source  txPk
attr title  "packets transmitted, sum(packetBytes)"
scalar gridfullhost.switch[0].mac[17] 	"simulated time" 	100
scalar gridfullhost.switch[0].mac[17] 	full-duplex 	1
scalar gridfullhost.switch[0].mac[17] 	"frames/sec sent" 	0.93
scalar gridfullhost.switch[0].mac[17] 	"frames/sec rcvd" 	0
scalar gridfullhost.switch[0].mac[17] 	"bits/sec sent" 	476.16
scalar gridfullhost.switch[0].mac[17] 	"bits/sec rcvd" 	0
scalar gridfullhost.switch[0].mac[17] 	"rx channel idle (%)" 	100
scalar gridfullhost.switch[0].mac[17] 	"rx channel utilization (%)" 	0
scalar gridfullhost.switch[0].mac[17] 	"rx channel collision (%)" 	0
scalar gridfullhost.switch[0].mac[17] 	collisions 	0
scalar gridfullhost.switch[0].mac[17] 	backoffs 	0
scalar gridfullhost.switch[0].mac[17] 	"average latency" 	0
scalar gridfullhost.switch[0].mac[17] 	"max latency" 	0
scalar gridfullhost.switch[0].mac[17] 	"min latency" 	100
scalar gridfullhost.switch[0].mac[17] 	"average processing time" 	4.838718182345
scalar gridfullhost.switch[0].mac[17] 	"max processing time" 	90.000006719999
scalar gridfullhost.switch[0].mac[17] 	"min processing time" 	6.719999e-06
scalar gridfullhost.switch[0].mac[17] 	"debug time" 	90.000006719999
scalar gridfullhost.switch[0].mac[17] 	"ARP requests rcvd" 	0
scalar gridfullhost.switch[0].mac[17] 	backoff:count 	0
attr interpolationmode  none
attr title  "backoff, count"
scalar gridfullhost.switch[0].mac[17] 	collision:count 	0
attr interpolationmode  none
attr title  "collision, count"
scalar gridfullhost.switch[0].mac[17] 	droppedPkNotForUs:count 	0
attr interpolationmode  none
attr source  dropPkNotForUs
attr title  "packets dropped/not for us, count"
scalar gridfullhost.switch[0].mac[17] 	droppedPkNotForUs:sum(packetBytes) 	0
attr interpolationmode  none
attr source  dropPkNotForUs
attr title  "packets dropped/not for us, sum(packetBytes)"
scalar gridfullhost.switch[0].mac[17] 	droppedPkBitError:count 	0
attr interpolationmode  none
[...]
scalar gridfullhost.host[223].networkLayer.arp 	sentReplies:count 	0
attr title  "ARP replies sent, count"
scalar gridfullhost.host[223].networkLayer.arp 	sentReq:count 	0
attr title  "ARP request sent, count"
scalar gridfullhost.host[223].eth[0].queue.pauseQueue 	queueLength:max 	0
attr interpolationmode  sample-hold
attr title  "queue length, max"
scalar gridfullhost.host[223].eth[0].queue.pauseQueue 	queueLength:timeavg 	0
attr interpolationmode  sample-hold
attr title  "queue length, timeavg"
statistic gridfullhost.host[223].eth[0].queue.pauseQueue 	queueingTime:histogram
field count 0
field mean 0
field stddev -nan
field sum 0
field sqrsum 0
field min 0
field max 0
attr interpolationmode  none
attr title  "queueing time, histogram"
bin	-INF	0
bin	-0.5	0
bin	-0.46666666666667	0
bin	-0.43333333333333	0
bin	-0.4	0
bin	-0.36666666666667	0
bin	-0.33333333333333	0
bin	-0.3	0
bin	-0.26666666666667	0
bin	-0.23333333333333	0
bin	-0.2	0
bin	-0.16666666666667	0
bin	-0.13333333333333	0
bin	-0.1	0
bin	-0.066666666666667	0
bin	-0.033333333333333	0
bin	0	0
bin	0.033333333333333	0
bin	0.066666666666667	0
bin	0.1	0
bin	0.13333333333333	0
bin	0.16666666666667	0
bin	0.2	0
bin	0.23333333333333	0
bin	0.26666666666667	0
bin	0.3	0
bin	0.33333333333333	0
bin	0.36666666666667	0
bin	0.4	0
bin	0.43333333333333	0
bin	0.46666666666667	0
bin	0.5	0
scalar gridfullhost.host[223].eth[0].queue.pauseQueue 	dropPk:count 	0
attr interpolationmode  none
attr source  dropPkByQueue
attr title  "dropped packets, count"
scalar gridfullhost.host[223].eth[0].queue.pauseQueue 	dropPk:sum(packetBytes) 	0
attr interpolationmode  none
attr source  dropPkByQueue
attr title  "dropped packets, sum(packetBytes)"
scalar gridfullhost.host[223].eth[0].queue.pauseQueue 	rcvdPk:count 	0
attr interpolationmode  none
attr title  "received packets, count"
scalar gridfullhost.host[223].eth[0].queue.pauseQueue 	rcvdPk:sum(packetBytes) 	0
attr interpolationmode  none
attr title  "received packets, sum(packetBytes)"
scalar gridfullhost.host[223].eth[0].queue.dataQueue 	queueLength:max 	1
attr interpolationmode  sample-hold
attr title  "queue length, max"
scalar gridfullhost.host[223].eth[0].queue.dataQueue 	queueLength:timeavg 	0
attr interpolationmode  sample-hold
attr title  "queue length, timeavg"
statistic gridfullhost.host[223].eth[0].queue.dataQueue 	queueingTime:histogram
field count 7635
field mean 0
field stddev 0
field sum 0
field sqrsum 0
field min 0
field max 0
attr interpolationmode  none
attr title  "queueing time, histogram"
bin	-INF	0
bin	-0.5	0
bin	-0.46666666666667	0
bin	-0.43333333333333	0
bin	-0.4	0
bin	-0.36666666666667	0
bin	-0.33333333333333	0
bin	-0.3	0
bin	-0.26666666666667	0
bin	-0.23333333333333	0
bin	-0.2	0
bin	-0.16666666666667	0
bin	-0.13333333333333	0
bin	-0.1	0
bin	-0.066666666666667	0
bin	-0.033333333333333	0
bin	0	7635
bin	0.033333333333333	0
bin	0.066666666666667	0
bin	0.1	0
bin	0.13333333333333	0
bin	0.16666666666667	0
bin	0.2	0
bin	0.23333333333333	0
bin	0.26666666666667	0
bin	0.3	0
bin	0.33333333333333	0
bin	0.36666666666667	0
bin	0.4	0
bin	0.43333333333333	0
bin	0.46666666666667	0
bin	0.5	0
scalar gridfullhost.host[223].eth[0].queue.dataQueue 	dropPk:count 	0
attr interpolationmode  none
attr source  dropPkByQueue
attr title  "dropped packets, count"
scalar gridfullhost.host[223].eth[0].queue.dataQueue 	dropPk:sum(packetBytes) 	0
attr interpolationmode  none
attr source  dropPkByQueue
attr title  "dropped packets, sum(packetBytes)"
scalar gridfullhost.host[223].eth[0].queue.dataQueue 	rcvdPk:count 	7635
attr interpolationmode  none
attr title  "received packets, count"
scalar gridfullhost.host[223].eth[0].queue.dataQueue 	rcvdPk:sum(packetBytes) 	564980
attr interpolationmode  none
attr title  "received packets, sum(packetBytes)"
scalar gridfullhost.host[223].eth[0].mac 	"simulated time" 	100
scalar gridfullhost.host[223].eth[0].mac 	full-duplex 	1
scalar gridfullhost.host[223].eth[0].mac 	"frames/sec sent" 	76.35
scalar gridfullhost.host[223].eth[0].mac 	"frames/sec rcvd" 	153.42
scalar gridfullhost.host[223].eth[0].mac 	"bits/sec sent" 	45198.4
scalar gridfullhost.host[223].eth[0].mac 	"bits/sec rcvd" 	967759.36
scalar gridfullhost.host[223].eth[0].mac 	"rx channel idle (%)" 	99.02240448
scalar gridfullhost.host[223].eth[0].mac 	"rx channel utilization (%)" 	0.97759552
scalar gridfullhost.host[223].eth[0].mac 	"average latency" 	0.000648644963
scalar gridfullhost.host[223].eth[0].mac 	"max latency" 	0.001000512175
scalar gridfullhost.host[223].eth[0].mac 	"min latency" 	0.000623449995
scalar gridfullhost.host[223].eth[0].mac 	"average processing time" 	0
scalar gridfullhost.host[223].eth[0].mac 	"max processing time" 	0
scalar gridfullhost.host[223].eth[0].mac 	"min processing time" 	100
scalar gridfullhost.host[223].eth[0].mac 	"debug time" 	0
scalar gridfullhost.host[223].eth[0].mac 	"ARP requests rcvd" 	74
scalar gridfullhost.host[223].eth[0].mac 	droppedPkNotForUs:count 	3
attr interpolationmode  none
attr source  dropPkNotForUs
attr title  "packets dropped/not for us, count"
scalar gridfullhost.host[223].eth[0].mac 	droppedPkNotForUs:sum(packetBytes) 	216
attr interpolationmode  none
attr source  dropPkNotForUs
attr title  "packets dropped/not for us, sum(packetBytes)"
scalar gridfullhost.host[223].eth[0].mac 	droppedPkBitError:count 	0
attr interpolationmode  none
attr source  dropPkBitError
attr title  "packets dropped/bit error, count"
scalar gridfullhost.host[223].eth[0].mac 	droppedPkBitError:sum(packetBytes) 	0
attr interpolationmode  none
attr source  dropPkBitError
attr title  "packets dropped/bit error, sum(packetBytes)"
scalar gridfullhost.host[223].eth[0].mac 	droppedPkIfaceDown:count 	0
attr interpolationmode  none
attr source  dropPkIfaceDown
attr title  "packets dropped/interface down, count"
scalar gridfullhost.host[223].eth[0].mac 	droppedPkIfaceDown:sum(packetBytes) 	0
attr interpolationmode  none
attr source  dropPkIfaceDown
attr title  "packets dropped/interface down, sum(packetBytes)"
scalar gridfullhost.host[223].eth[0].mac 	rxPkFromHL:count 	7635
attr interpolationmode  none
attr source  rxPkFromHL
attr title  "packet bytes from higher layer, count"
scalar gridfullhost.host[223].eth[0].mac 	rxPkFromHL:sum(packetBytes) 	564980
attr interpolationmode  none
attr source  rxPkFromHL
attr title  "packet bytes from higher layer, sum(packetBytes)"
scalar gridfullhost.host[223].eth[0].mac 	rxPausePkUnits:count 	0
attr interpolationmode  none
attr title  "pause units received, count"
scalar gridfullhost.host[223].eth[0].mac 	rxPausePkUnits:sum 	0
attr interpolationmode  none
attr title  "pause units received, sum"
scalar gridfullhost.host[223].eth[0].mac 	txPausePkUnits:count 	0
attr interpolationmode  none
attr title  "pause units sent, count"
scalar gridfullhost.host[223].eth[0].mac 	txPausePkUnits:sum 	0
attr interpolationmode  none
attr title  "pause units sent, sum"
scalar gridfullhost.host[223].eth[0].mac 	passedUpPk:count 	15342
attr interpolationmode  none
attr source  packetSentToUpper
attr title  "packets passed to higher layer, count"
scalar gridfullhost.host[223].eth[0].mac 	passedUpPk:sum(packetBytes) 	12096992
attr interpolationmode  none
attr source  packetSentToUpper
attr title  "packets passed to higher layer, sum(packetBytes)"
scalar gridfullhost.host[223].eth[0].mac 	rxPkOk:count 	15342
attr interpolationmode  none
attr source  rxPkOk
attr title  "packets received OK, count"
scalar gridfullhost.host[223].eth[0].mac 	rxPkOk:sum(packetBytes) 	12096992
attr interpolationmode  none
attr source  rxPkOk
attr title  "packets received OK, sum(packetBytes)"
scalar gridfullhost.host[223].eth[0].mac 	txPk:count 	7635
attr interpolationmode  none
attr source  txPk
attr title  "packets transmitted, count"
scalar gridfullhost.host[223].eth[0].mac 	txPk:sum(packetBytes) 	564980
attr interpolationmode  none
attr source  txPk
attr title  "packets transmitted, sum(packetBytes)"
scalar gridfullhost.host[223].eth[0].encap 	pauseSent:count 	0
attr title  "pause sent, count"
scalar gridfullhost.host[223].eth[0].encap 	pauseSent:sum 	0
attr title  "pause sent, sum"
scalar gridfullhost.host[223].eth[0].encap 	decapPk:count 	15342
attr interpolationmode  none
attr source  decapPk
attr title  "packets decapsulated, count"
scalar gridfullhost.host[223].eth[0].encap 	decapPk:sum(packetBytes) 	11819504
attr interpolationmode  none
attr source  decapPk
attr title  "packets decapsulated, sum(packetBytes)"
scalar gridfullhost.host[223].eth[0].encap 	encapPk:count 	7635
attr interpolationmode  none
attr source  encapPk
attr title  "packets encapsulated, count"
scalar gridfullhost.host[223].eth[0].encap 	encapPk:sum(packetBytes) 	427532
attr interpolationmode  none
attr source  encapPk
attr title  "packets encapsulated, sum(packetBytes)"
scalar gridfullhost.host[223].udpGen 	"packets sent" 	0
scalar gridfullhost.host[223].udpGen 	"packets received" 	0
scalar gridfullhost.host[223].udp 	droppedPkBadChecksum:count 	0
attr interpolationmode  none
attr title  "packets dropped (checksum error), count"
scalar gridfullhost.host[223].udp 	droppedPkWrongPort:count 	7634
attr interpolationmode  none
attr title  "packets dropped (wrong port), count"
scalar gridfullhost.host[223].udp 	passedUpPk:count 	0
attr interpolationmode  none
attr title  "packets passed up, count"
scalar gridfullhost.host[223].udp 	rcvdPk:count 	7634
attr interpolationmode  none
attr source  rcvdPk
attr title  "packets received, count"
scalar gridfullhost.host[223].udp 	rcvdPk:sum(packetBytes) 	11512072
attr interpolationmode  none
attr source  rcvdPk
attr title  "packets received, sum(packetBytes)"
scalar gridfullhost.host[223].udp 	sentPk:count 	0
attr interpolationmode  none
attr source  sentPk
attr title  "packets sent, count"
scalar gridfullhost.host[223].udp 	sentPk:sum(packetBytes) 	0
attr interpolationmode  none
attr source  sentPk
attr title  "packets sent, sum(packetBytes)"
scalar gridfullhost.host[224].networkLayer.arp 	failedResolution:count 	0
attr title  "ARP failed resolutions, count"
scalar gridfullhost.host[224].networkLayer.arp 	initiatedResolution:count 	0
attr title  "ARP initiated resolutions, count"
scalar gridfullhost.host[224].networkLayer.arp 	sentReplies:count 	0
attr title  "ARP replies sent, count"
scalar gridfullhost.host[224].networkLayer.arp 	sentReq:count 	0
attr title  "ARP request sent, count"
scalar gridfullhost.host[224].eth[0].queue.pauseQueue 	queueLength:max 	0
attr interpolationmode  sample-hold
attr title  "queue length, max"
scalar gridfullhost.host[224].eth[0].queue.pauseQueue 	queueLength:timeavg 	0
attr interpolationmode  sample-hold
attr title  "queue length, timeavg"
statistic gridfullhost.host[224].eth[0].queue.pauseQueue 	queueingTime:histogram
field count 0
field mean 0
field stddev -nan
field sum 0
field sqrsum 0
field min 0
field max 0
attr interpolationmode  none
attr title  "queueing time, histogram"
bin	-INF	0
bin	-0.5	0
bin	-0.46666666666667	0
bin	-0.43333333333333	0
bin	-0.4	0
bin	-0.36666666666667	0
bin	-0.33333333333333	0
bin	-0.3	0
bin	-0.26666666666667	0
bin	-0.23333333333333	0
bin	-0.2	0
bin	-0.16666666666667	0
bin	-0.13333333333333	0
bin	-0.1	0
bin	-0.066666666666667	0
bin	-0.033333333333333	0
bin	0	0
bin	0.033333333333333	0
bin	0.066666666666667	0
bin	0.1	0
bin	0.13333333333333	0
bin	0.16666666666667	0
bin	0.2	0
bin	0.23333333333333	0
bin	0.26666666666667	0
bin	0.3	0
bin	0.33333333333333	0
bin	0.36666666666667	0
bin	0.4	0
bin	0.43333333333333	0
bin	0.46666666666667	0
bin	0.5	0
scalar gridfullhost.host[224].eth[0].queue.pauseQueue 	dropPk:count 	0
attr interpolationmode  none
attr source  dropPkByQueue
attr title  "dropped packets, count"
scalar gridfullhost.host[224].eth[0].queue.pauseQueue 	dropPk:sum(packetBytes) 	0
attr interpolationmode  none
attr source  dropPkByQueue
attr title  "dropped packets, sum(packetBytes)"
scalar gridfullhost.host[224].eth[0].queue.pauseQueue 	rcvdPk:count 	0
attr interpolationmode  none
attr title  "received packets, count"
scalar gridfullhost.host[224].eth[0].queue.pauseQueue 	rcvdPk:sum(packetBytes) 	0
attr interpolationmode  none
attr title  "received packets, sum(packetBytes)"
scalar gridfullhost.host[224].eth[0].queue.dataQueue 	queueLength:max 	0
attr interpolationmode  sample-hold
attr title  "queue length, max"
scalar gridfullhost.host[224].eth[0].queue.dataQueue 	queueLength:timeavg 	0
attr interpolationmode  sample-hold
attr title  "queue length, timeavg"
statistic gridfullhost.host[224].eth[0].queue.dataQueue 	queueingTime:histogram
field count 0
field mean 0
field stddev -nan
field sum 0
field sqrsum 0
field min 0
field max 0
attr interpolationmode  none
attr title  "queueing time, histogram"
bin	-INF	0
bin	-0.5	0
bin	-0.46666666666667	0
bin	-0.43333333333333	0
bin	-0.4	0
bin	-0.36666666666667	0
bin	-0.33333333333333	0
bin	-0.3	0
bin	-0.26666666666667	0
bin	-0.23333333333333	0
bin	-0.2	0
bin	-0.16666666666667	0
bin	-0.13333333333333	0
bin	-0.1	0
bin	-0.066666666666667	0
bin	-0.033333333333333	0
bin	0	0
bin	0.033333333333333	0
bin	0.066666666666667	0
bin	0.1	0
bin	0.13333333333333	0
bin	0.16666666666667	0
bin	0.2	0
bin	0.23333333333333	0
bin	0.26666666666667	0
bin	0.3	0
bin	0.33333333333333	0
bin	0.36666666666667	0
bin	0.4	0
bin	0.43333333333333	0
bin	0.46666666666667	0
bin	0.5	0
scalar gridfullhost.host[224].eth[0].queue.dataQueue 	dropPk:count 	0
attr interpolationmode  none
attr source  dropPkByQueue
attr title  "dropped packets, count"
scalar gridfullhost.host[224].eth[0].queue.dataQueue 	dropPk:sum(packetBytes) 	0
attr interpolationmode  none
attr source  dropPkByQueue
attr title  "dropped packets, sum(packetBytes)"
scalar gridfullhost.host[224].eth[0].queue.dataQueue 	rcvdPk:count 	0
attr interpolationmode  none
attr title  "received packets, count"
scalar gridfullhost.host[224].eth[0].queue.dataQueue 	rcvdPk:sum(packetBytes) 	0
attr interpolationmode  none
attr title  "received packets, sum(packetBytes)"
scalar gridfullhost.host[224].eth[0].mac 	"simulated time" 	100
scalar gridfullhost.host[224].eth[0].mac 	full-duplex 	1
scalar gridfullhost.host[224].eth[0].mac 	"frames/sec sent" 	0
scalar gridfullhost.host[224].eth[0].mac 	"frames/sec rcvd" 	0.74
scalar gridfullhost.host[224].eth[0].mac 	"bits/sec sent" 	0
scalar gridfullhost.host[224].eth[0].mac 	"bits/sec rcvd" 	378.88
scalar gridfullhost.host[224].eth[0].mac 	"rx channel idle (%)" 	99.99945856
scalar gridfullhost.host[224].eth[0].mac 	"rx channel utilization (%)" 	0.00054144
scalar gridfullhost.host[224].eth[0].mac 	"average latency" 	0
scalar gridfullhost.host[224].eth[0].mac 	"max latency" 	0
scalar gridfullhost.host[224].eth[0].mac 	"min latency" 	100
scalar gridfullhost.host[224].eth[0].mac 	"average processing time" 	0
scalar gridfullhost.host[224].eth[0].mac 	"max processing time" 	0
scalar gridfullhost.host[224].eth[0].mac 	"min processing time" 	100
scalar gridfullhost.host[224].eth[0].mac 	"debug time" 	0
scalar gridfullhost.host[224].eth[0].mac 	"ARP requests rcvd" 	74
scalar gridfullhost.host[224].eth[0].mac 	droppedPkNotForUs:count 	20
attr interpolationmode  none
attr source  dropPkNotForUs
attr title  "packets dropped/not for us, count"
scalar gridfullhost.host[224].eth[0].mac 	droppedPkNotForUs:sum(packetBytes) 	1440
attr interpolationmode  none
attr source  dropPkNotForUs
attr title  "packets dropped/not for us, sum(packetBytes)"
scalar gridfullhost.host[224].eth[0].mac 	droppedPkBitError:count 	0
attr interpolationmode  none
attr source  dropPkBitError
attr title  "packets dropped/bit error, count"
scalar gridfullhost.host[224].eth[0].mac 	droppedPkBitError:sum(packetBytes) 	0
attr interpolationmode  none
attr source  dropPkBitError
attr title  "packets dropped/bit error, sum(packetBytes)"
scalar gridfullhost.host[224].eth[0].mac 	droppedPkIfaceDown:count 	0
attr interpolationmode  none
attr source  dropPkIfaceDown
attr title  "packets dropped/interface down, count"
scalar gridfullhost.host[224].eth[0].mac 	droppedPkIfaceDown:sum(packetBytes) 	0
attr interpolationmode  none
attr source  dropPkIfaceDown
attr title  "packets dropped/interface down, sum(packetBytes)"
scalar gridfullhost.host[224].eth[0].mac 	rxPkFromHL:count 	0
attr interpolationmode  none
attr source  rxPkFromHL
attr title  "packet bytes from higher layer, count"
scalar gridfullhost.host[224].eth[0].mac 	rxPkFromHL:sum(packetBytes) 	0
attr interpolationmode  none
attr source  rxPkFromHL
attr title  "packet bytes from higher layer, sum(packetBytes)"
scalar gridfullhost.host[224].eth[0].mac 	rxPausePkUnits:count 	0
attr interpolationmode  none
attr title  "pause units received, count"
scalar gridfullhost.host[224].eth[0].mac 	rxPausePkUnits:sum 	0
attr interpolationmode  none
attr title  "pause units received, sum"
scalar gridfullhost.host[224].eth[0].mac 	txPausePkUnits:count 	0
attr interpolationmode  none
attr title  "pause units sent, count"
scalar gridfullhost.host[224].eth[0].mac 	txPausePkUnits:sum 	0
attr interpolationmode  none
attr title  "pause units sent, sum"
scalar gridfullhost.host[224].eth[0].mac 	passedUpPk:count 	74
attr interpolationmode  none
attr source  packetSentToUpper
attr title  "packets passed to higher layer, count"
scalar gridfullhost.host[224].eth[0].mac 	passedUpPk:sum(packetBytes) 	4736
attr interpolationmode  none
attr source  packetSentToUpper
attr title  "packets passed to higher layer, sum(packetBytes)"
scalar gridfullhost.host[224].eth[0].mac 	rxPkOk:count 	74
attr interpolationmode  none
attr source  rxPkOk
attr title  "packets received OK, count"
scalar gridfullhost.host[224].eth[0].mac 	rxPkOk:sum(packetBytes) 	4736
attr interpolationmode  none
attr source  rxPkOk
attr title  "packets received OK, sum(packetBytes)"
scalar gridfullhost.host[224].eth[0].mac 	txPk:count 	0
attr interpolationmode  none
attr source  txPk
attr title  "packets transmitted, count"
scalar gridfullhost.host[224].eth[0].mac 	txPk:sum(packetBytes) 	0
attr interpolationmode  none
attr source  txPk
attr title  "packets transmitted, sum(packetBytes)"
scalar gridfullhost.host[224].eth[0].encap 	pauseSent:count 	0
attr title  "pause sent, count"
scalar gridfullhost.host[224].eth[0].encap 	pauseSent:sum 	0
attr title  "pause sent, sum"
scalar gridfullhost.host[224].eth[0].encap 	decapPk:count 	74
attr interpolationmode  none
attr source  decapPk
attr title  "packets decapsulated, count"
scalar gridfullhost.host[224].eth[0].encap 	decapPk:sum(packetBytes) 	2072
attr interpolationmode  none
attr source  decapPk
attr title  "packets decapsulated, sum(packetBytes)"
scalar gridfullhost.host[224].eth[0].encap 	encapPk:count 	0
attr interpolationmode  none
attr source  encapPk
attr title  "packets encapsulated, count"
scalar gridfullhost.host[224].eth[0].encap 	encapPk:sum(packetBytes) 	0
attr interpolationmode  none
attr source  encapPk
attr title  "packets encapsulated, sum(packetBytes)"
scalar gridfullhost.host[224].udpGen 	"packets sent" 	0
scalar gridfullhost.host[224].udpGen 	"packets received" 	0
scalar gridfullhost.host[224].udp 	droppedPkBadChecksum:count 	0
attr interpolationmode  none
attr title  "packets dropped (checksum error), count"
scalar gridfullhost.host[224].udp 	droppedPkWrongPort:count 	0
attr interpolationmode  none
attr title  "packets dropped (wrong port), count"
scalar gridfullhost.host[224].udp 	passedUpPk:count 	0
attr interpolationmode  none
attr title  "packets passed up, count"
scalar gridfullhost.host[224].udp 	rcvdPk:count 	0
attr interpolationmode  none
attr source  rcvdPk
attr title  "packets received, count"
scalar gridfullhost.host[224].udp 	rcvdPk:sum(packetBytes) 	0
attr interpolationmode  none
attr source  rcvdPk
attr title  "packets received, sum(packetBytes)"
scalar gridfullhost.host[224].udp 	sentPk:count 	0
attr interpolationmode  none
attr source  sentPk
attr title  "packets sent, count"
scalar gridfullhost.host[224].udp 	sentPk:sum(packetBytes) 	0
attr interpolationmode  none
attr source  sentPk
attr title  "packets sent, sum(packetBytes)"
