file 16141458 1510691343                                        
version 2
run ARPpath_TCP_Test1-0-20171114-23:11:24-8152
attr configname ARPpath_TCP_Test1
attr datetime 20171114-23:11:24
attr experiment ARPpath_TCP_Test1
attr inifile test1.ini
attr iterationvars ""
attr iterationvarsf ""
attr measurement ""
attr network test1
attr processid 8152
attr repetition 0
attr replication #0
attr resultdir results
attr runnumber 0
attr seedset 0
param *.switch*.macType "\"EtherMACFullDuplex\""
param **.eth[*].mac.duplexMode true
param *.switch*.csmacdSupport false
param **.switch*.relayUnitType "\"MACRelayUnitAPB\""
param *.switch*.relayUnit.isArpPath true
param *.switch*.relayUnit.learningTableAgingTime 120s
param *.switch*.relayUnit.blockingTableAgingTime 120s
param *.client*.networkLayer.arp.cacheTimeout 120s
param *.client1.numTcpApps 2
param **.client*.numTcpApps 1
param **.client*.tcpApp[*].typename "\"TCPSessionApp\""
param **.client*.tcpApp[*].active true
param **.client*.tcpApp[*].localAddress "\"\""
param **.client*.tcpApp[*].localPort -1
param **.client*.tcpApp[1].connectAddress "\"server2\""
param **.client*.tcpApp[*].connectAddress "\"server1\""
param **.client*.tcpApp[*].connectPort 1000
param **.client1.tcpApp[0].tOpen 0s
param **.client1.tcpApp[1].tOpen 2s
param **.client*.tcpApp[*].tOpen uniform(0s,0.5s)
param **.client*.tcpApp[*].tSend 0s
param **.client*.tcpApp[*].sendBytes 1MiB
param **.client*.tcpApp[*].sendScript "\"\""
param **.client*.tcpApp[*].tClose 2s
param **.server*.numTcpApps 1
param **.server*.tcpApp[*].typename "\"TCPEchoApp\""
param **.server*.tcpApp[0].localAddress "\"\""
param **.server*.tcpApp[0].localPort 1000
param **.server*.tcpApp[0].echoFactor 2.0
param **.server*.tcpApp[0].echoDelay 0
param **.eth[*].queueType "\"DropTailQueue\""

vector 0 test1.client1.eth[0].queue.pauseQueue queueLength:vector ETV
attr interpolationmode sample-hold
attr title "queue length, vector"
vector 1 test1.client1.eth[0].queue.dataQueue queueLength:vector ETV
attr interpolationmode sample-hold
attr title "queue length, vector"
vector 2 test1.client2.eth[0].queue.pauseQueue queueLength:vector ETV
attr interpolationmode sample-hold
attr title "queue length, vector"
vector 3 test1.client2.eth[0].queue.dataQueue queueLength:vector ETV
attr interpolationmode sample-hold
attr title "queue length, vector"
vector 4 test1.client3.eth[0].queue.pauseQueue queueLength:vector ETV
attr interpolationmode sample-hold
attr title "queue length, vector"
vector 5 test1.client3.eth[0].queue.dataQueue queueLength:vector ETV
attr interpolationmode sample-hold
attr title "queue length, vector"
vector 6 test1.client4.eth[0].queue.pauseQueue queueLength:vector ETV
attr interpolationmode sample-hold
attr title "queue length, vector"
vector 7 test1.client4.eth[0].queue.dataQueue queueLength:vector ETV
attr interpolationmode sample-hold
attr title "queue length, vector"
vector 8 test1.client5.eth[0].queue.pauseQueue queueLength:vector ETV
attr interpolationmode sample-hold
attr title "queue length, vector"
vector 9 test1.client5.eth[0].queue.dataQueue queueLength:vector ETV
attr interpolationmode sample-hold
attr title "queue length, vector"
vector 10 test1.client6.eth[0].queue.pauseQueue queueLength:vector ETV
attr interpolationmode sample-hold
attr title "queue length, vector"
vector 11 test1.client6.eth[0].queue.dataQueue queueLength:vector ETV
attr interpolationmode sample-hold
attr title "queue length, vector"
vector 12 test1.server1.eth[0].queue.pauseQueue queueLength:vector ETV
attr interpolationmode sample-hold
attr title "queue length, vector"
vector 13 test1.server1.eth[0].queue.dataQueue queueLength:vector ETV
attr interpolationmode sample-hold
attr title "queue length, vector"
vector 14 test1.server2.eth[0].queue.pauseQueue queueLength:vector ETV
attr interpolationmode sample-hold
attr title "queue length, vector"
vector 15 test1.server2.eth[0].queue.dataQueue queueLength:vector ETV
attr interpolationmode sample-hold
attr title "queue length, vector"
vector 16 test1.switchA.eth[0].queue.pauseQueue queueLength:vector ETV
attr interpolationmode sample-hold
attr title "queue length, vector"
vector 17 test1.switchA.eth[0].queue.dataQueue queueLength:vector ETV
attr interpolationmode sample-hold
attr title "queue length, vector"
vector 18 test1.switchA.eth[1].queue.pauseQueue queueLength:vector ETV
attr interpolationmode sample-hold
attr title "queue length, vector"
vector 19 test1.switchA.eth[1].queue.dataQueue queueLength:vector ETV
attr interpolationmode sample-hold
attr title "queue length, vector"
vector 20 test1.switchA.eth[2].queue.pauseQueue queueLength:vector ETV
attr interpolationmode sample-hold
attr title "queue length, vector"
vector 21 test1.switchA.eth[2].queue.dataQueue queueLength:vector ETV
attr interpolationmode sample-hold
attr title "queue length, vector"
vector 22 test1.switchA.eth[3].queue.pauseQueue queueLength:vector ETV
attr interpolationmode sample-hold
attr title "queue length, vector"
vector 23 test1.switchA.eth[3].queue.dataQueue queueLength:vector ETV
attr interpolationmode sample-hold
attr title "queue length, vector"
vector 24 test1.switchA.eth[4].queue.pauseQueue queueLength:vector ETV
attr interpolationmode sample-hold
attr title "queue length, vector"
vector 25 test1.switchA.eth[4].queue.dataQueue queueLength:vector ETV
attr interpolationmode sample-hold
attr title "queue length, vector"
vector 26 test1.switchB.eth[0].queue.pauseQueue queueLength:vector ETV
attr interpolationmode sample-hold
attr title "queue length, vector"
vector 27 test1.switchB.eth[0].queue.dataQueue queueLength:vector ETV
attr interpolationmode sample-hold
attr title "queue length, vector"
vector 28 test1.switchB.eth[1].queue.pauseQueue queueLength:vector ETV
attr interpolationmode sample-hold
attr title "queue length, vector"
vector 29 test1.switchB.eth[1].queue.dataQueue queueLength:vector ETV
attr interpolationmode sample-hold
attr title "queue length, vector"
vector 30 test1.switchB.eth[2].queue.pauseQueue queueLength:vector ETV
attr interpolationmode sample-hold
attr title "queue length, vector"
vector 31 test1.switchB.eth[2].queue.dataQueue queueLength:vector ETV
attr interpolationmode sample-hold
attr title "queue length, vector"
vector 32 test1.switchB.eth[3].queue.pauseQueue queueLength:vector ETV
attr interpolationmode sample-hold
attr title "queue length, vector"
vector 33 test1.switchB.eth[3].queue.dataQueue queueLength:vector ETV
attr interpolationmode sample-hold
attr title "queue length, vector"
vector 34 test1.switchB.eth[4].queue.pauseQueue queueLength:vector ETV
attr interpolationmode sample-hold
attr title "queue length, vector"
vector 35 test1.switchB.eth[4].queue.dataQueue queueLength:vector ETV
attr interpolationmode sample-hold
attr title "queue length, vector"
vector 36 test1.switchC.eth[0].queue.pauseQueue queueLength:vector ETV
attr interpolationmode sample-hold
attr title "queue length, vector"
vector 37 test1.switchC.eth[0].queue.dataQueue queueLength:vector ETV
attr interpolationmode sample-hold
attr title "queue length, vector"
vector 38 test1.switchC.eth[1].queue.pauseQueue queueLength:vector ETV
attr interpolationmode sample-hold
attr title "queue length, vector"
vector 39 test1.switchC.eth[1].queue.dataQueue queueLength:vector ETV
attr interpolationmode sample-hold
attr title "queue length, vector"
vector 40 test1.switchD.eth[0].queue.pauseQueue queueLength:vector ETV
attr interpolationmode sample-hold
attr title "queue length, vector"
vector 41 test1.switchD.eth[0].queue.dataQueue queueLength:vector ETV
attr interpolationmode sample-hold
attr title "queue length, vector"
vector 42 test1.switchD.eth[1].queue.pauseQueue queueLength:vector ETV
attr interpolationmode sample-hold
attr title "queue length, vector"
vector 43 test1.switchD.eth[1].queue.dataQueue queueLength:vector ETV
attr interpolationmode sample-hold
attr title "queue length, vector"
vector 44 test1.switchD.eth[2].queue.pauseQueue queueLength:vector ETV
attr interpolationmode sample-hold
attr title "queue length, vector"
vector 45 test1.switchD.eth[2].queue.dataQueue queueLength:vector ETV
attr interpolationmode sample-hold
attr title "queue length, vector"
vector 46 test1.switchD.eth[3].queue.pauseQueue queueLength:vector ETV
attr interpolationmode sample-hold
attr title "queue length, vector"
vector 47 test1.switchD.eth[3].queue.dataQueue queueLength:vector ETV
attr interpolationmode sample-hold
attr title "queue length, vector"
vector 48 test1.switchE.eth[0].queue.pauseQueue queueLength:vector ETV
attr interpolationmode sample-hold
attr title "queue length, vector"
vector 49 test1.switchE.eth[0].queue.dataQueue queueLength:vector ETV
attr interpolationmode sample-hold
attr title "queue length, vector"
vector 50 test1.switchE.eth[1].queue.pauseQueue queueLength:vector ETV
attr interpolationmode sample-hold
attr title "queue length, vector"
vector 51 test1.switchE.eth[1].queue.dataQueue queueLength:vector ETV
attr interpolationmode sample-hold
attr title "queue length, vector"
vector 52 test1.client1.tcp tcpRcvQueueBytes ETV
vector 53 test1.client1.tcp "advertised window" ETV
vector 54 test1.client1.tcp "receive window" ETV
vector 55 test1.client1.tcp "sent ack" ETV
vector 56 test1.client1.networkLayer.arp sentReq:vector ETV
attr title "ARP request sent, vector"
vector 57 test1.client1.eth[0].encap encapPk:vector(packetBytes) ETV
attr interpolationmode none
attr source encapPk
attr title "packets encapsulated, vector(packetBytes)"
vector 58 test1.client1.eth[0].queue.dataQueue rcvdPk:vector(packetBytes) ETV
attr interpolationmode none
attr title "received packets, vector(packetBytes)"
vector 59 test1.client1.eth[0].queue.dataQueue queueingTime:vector ETV
attr interpolationmode none
attr title "queueing time, vector"
vector 60 test1.client1.eth[0].mac rxPkFromHL:vector(packetBytes) ETV
attr interpolationmode none
attr source rxPkFromHL
attr title "packet bytes from higher layer, vector(packetBytes)"
vector 61 test1.client1.eth[0].mac txPk:vector(packetBytes) ETV
attr interpolationmode none
attr source txPk
attr title "packets transmitted, vector(packetBytes)"
vector 62 test1.switchA.eth[4].mac rxPkOk:vector(packetBytes) ETV
attr interpolationmode none
attr source rxPkOk
attr title "packets received OK, vector(packetBytes)"
vector 63 test1.switchA.eth[4].mac passedUpPk:vector(packetBytes) ETV
attr interpolationmode none
attr source packetSentToUpper
attr title "packets passed to higher layer, vector(packetBytes)"
vector 64 test1.switchA.eth[0].queue.dataQueue rcvdPk:vector(packetBytes) ETV
attr interpolationmode none
attr title "received packets, vector(packetBytes)"
vector 65 test1.switchA.eth[0].queue.dataQueue queueingTime:vector ETV
attr interpolationmode none
attr title "queueing time, vector"
vector 66 test1.switchA.eth[1].queue.dataQueue rcvdPk:vector(packetBytes) ETV
attr interpolationmode none
attr title "received packets, vector(packetBytes)"
vector 67 test1.switchA.eth[1].queue.dataQueue queueingTime:vector ETV
attr interpolationmode none
attr title "queueing time, vector"
vector 68 test1.switchA.eth[2].queue.dataQueue rcvdPk:vector(packetBytes) ETV
attr interpolationmode none
attr title "received packets, vector(packetBytes)"
vector 69 test1.switchA.eth[2].queue.dataQueue queueingTime:vector ETV
attr interpolationmode none
attr title "queueing time, vector"
vector 70 test1.switchA.eth[3].queue.dataQueue rcvdPk:vector(packetBytes) ETV
attr interpolationmode none
attr title "received packets, vector(packetBytes)"
vector 71 test1.switchA.eth[3].queue.dataQueue queueingTime:vector ETV
attr interpolationmode none
attr title "queueing time, vector"
vector 72 test1.switchA.eth[0].mac rxPkFromHL:vector(packetBytes) ETV
attr interpolationmode none
attr source rxPkFromHL
attr title "packet bytes from higher layer, vector(packetBytes)"
vector 73 test1.switchA.eth[1].mac rxPkFromHL:vector(packetBytes) ETV
attr interpolationmode none
attr source rxPkFromHL
attr title "packet bytes from higher layer, vector(packetBytes)"
vector 74 test1.switchA.eth[2].mac rxPkFromHL:vector(packetBytes) ETV
attr interpolationmode none
attr source rxPkFromHL
attr title "packet bytes from higher layer, vector(packetBytes)"
vector 75 test1.switchA.eth[3].mac rxPkFromHL:vector(packetBytes) ETV
attr interpolationmode none
attr source rxPkFromHL
attr title "packet bytes from higher layer, vector(packetBytes)"
vector 76 test1.switchA.eth[0].mac txPk:vector(packetBytes) ETV
attr interpolationmode none
attr source txPk
attr title "packets transmitted, vector(packetBytes)"
vector 77 test1.switchA.eth[1].mac txPk:vector(packetBytes) ETV
attr interpolationmode none
attr source txPk
attr title "packets transmitted, vector(packetBytes)"
vector 78 test1.switchA.eth[2].mac txPk:vector(packetBytes) ETV
attr interpolationmode none
attr source txPk
attr title "packets transmitted, vector(packetBytes)"
vector 79 test1.switchA.eth[3].mac txPk:vector(packetBytes) ETV
attr interpolationmode none
attr source txPk
attr title "packets transmitted, vector(packetBytes)"
vector 80 test1.switchB.eth[0].mac rxPkOk:vector(packetBytes) ETV
attr interpolationmode none
attr source rxPkOk
attr title "packets received OK, vector(packetBytes)"
vector 81 test1.switchB.eth[0].mac passedUpPk:vector(packetBytes) ETV
attr interpolationmode none
attr source packetSentToUpper
attr title "packets passed to higher layer, vector(packetBytes)"
vector 82 test1.switchC.eth[1].mac rxPkOk:vector(packetBytes) ETV
attr interpolationmode none
attr source rxPkOk
attr title "packets received OK, vector(packetBytes)"
vector 83 test1.switchC.eth[1].mac passedUpPk:vector(packetBytes) ETV
attr interpolationmode none
attr source packetSentToUpper
attr title "packets passed to higher layer, vector(packetBytes)"
vector 84 test1.client3.eth[0].mac rxPkOk:vector(packetBytes) ETV
attr interpolationmode none
attr source rxPkOk
attr title "packets received OK, vector(packetBytes)"
vector 85 test1.client3.eth[0].mac passedUpPk:vector(packetBytes) ETV
attr interpolationmode none
attr source packetSentToUpper
attr title "packets passed to higher layer, vector(packetBytes)"
vector 86 test1.client2.eth[0].mac rxPkOk:vector(packetBytes) ETV
attr interpolationmode none
attr source rxPkOk
attr title "packets received OK, vector(packetBytes)"
vector 87 test1.client2.eth[0].mac passedUpPk:vector(packetBytes) ETV
attr interpolationmode none
attr source packetSentToUpper
attr title "packets passed to higher layer, vector(packetBytes)"
vector 88 test1.client3.eth[0].encap decapPk:vector(packetBytes) ETV
attr interpolationmode none
attr source decapPk
attr title "packets decapsulated, vector(packetBytes)"
vector 89 test1.client2.eth[0].encap decapPk:vector(packetBytes) ETV
attr interpolationmode none
attr source decapPk
attr title "packets decapsulated, vector(packetBytes)"
vector 90 test1.switchB.eth[1].queue.dataQueue rcvdPk:vector(packetBytes) ETV
attr interpolationmode none
attr title "received packets, vector(packetBytes)"
vector 91 test1.switchB.eth[1].queue.dataQueue queueingTime:vector ETV
attr interpolationmode none
attr title "queueing time, vector"
vector 92 test1.switchB.eth[2].queue.dataQueue rcvdPk:vector(packetBytes) ETV
attr interpolationmode none
attr title "received packets, vector(packetBytes)"
vector 93 test1.switchB.eth[2].queue.dataQueue queueingTime:vector ETV
attr interpolationmode none
attr title "queueing time, vector"
vector 94 test1.switchB.eth[3].queue.dataQueue rcvdPk:vector(packetBytes) ETV
attr interpolationmode none
attr title "received packets, vector(packetBytes)"
vector 95 test1.switchB.eth[3].queue.dataQueue queueingTime:vector ETV
attr interpolationmode none
attr title "queueing time, vector"
vector 96 test1.switchB.eth[4].queue.dataQueue rcvdPk:vector(packetBytes) ETV
attr interpolationmode none
attr title "received packets, vector(packetBytes)"
vector 97 test1.switchB.eth[4].queue.dataQueue queueingTime:vector ETV
attr interpolationmode none
attr title "queueing time, vector"
vector 98 test1.switchC.eth[0].queue.dataQueue rcvdPk:vector(packetBytes) ETV
attr interpolationmode none
attr title "received packets, vector(packetBytes)"
vector 99 test1.switchC.eth[0].queue.dataQueue queueingTime:vector ETV
attr interpolationmode none
attr title "queueing time, vector"
vector 100 test1.switchB.eth[1].mac rxPkFromHL:vector(packetBytes) ETV
attr interpolationmode none
attr source rxPkFromHL
attr title "packet bytes from higher layer, vector(packetBytes)"
vector 101 test1.switchB.eth[2].mac rxPkFromHL:vector(packetBytes) ETV
attr interpolationmode none
attr source rxPkFromHL
attr title "packet bytes from higher layer, vector(packetBytes)"
vector 102 test1.switchB.eth[3].mac rxPkFromHL:vector(packetBytes) ETV
attr interpolationmode none
attr source rxPkFromHL
attr title "packet bytes from higher layer, vector(packetBytes)"
vector 103 test1.switchB.eth[4].mac rxPkFromHL:vector(packetBytes) ETV
attr interpolationmode none
attr source rxPkFromHL
attr title "packet bytes from higher layer, vector(packetBytes)"
vector 104 test1.switchC.eth[0].mac rxPkFromHL:vector(packetBytes) ETV
attr interpolationmode none
attr source rxPkFromHL
attr title "packet bytes from higher layer, vector(packetBytes)"
vector 105 test1.switchB.eth[1].mac txPk:vector(packetBytes) ETV
attr interpolationmode none
attr source txPk
attr title "packets transmitted, vector(packetBytes)"
vector 106 test1.switchB.eth[2].mac txPk:vector(packetBytes) ETV
attr interpolationmode none
attr source txPk
attr title "packets transmitted, vector(packetBytes)"
vector 107 test1.switchB.eth[3].mac txPk:vector(packetBytes) ETV
attr interpolationmode none
attr source txPk
attr title "packets transmitted, vector(packetBytes)"
vector 108 test1.switchB.eth[4].mac txPk:vector(packetBytes) ETV
attr interpolationmode none
attr source txPk
attr title "packets transmitted, vector(packetBytes)"
vector 109 test1.switchC.eth[0].mac txPk:vector(packetBytes) ETV
attr interpolationmode none
attr source txPk
attr title "packets transmitted, vector(packetBytes)"
vector 110 test1.switchD.eth[1].mac rxPkOk:vector(packetBytes) ETV
attr interpolationmode none
attr source rxPkOk
attr title "packets received OK, vector(packetBytes)"
vector 111 test1.switchD.eth[1].mac passedUpPk:vector(packetBytes) ETV
attr interpolationmode none
attr source packetSentToUpper
attr title "packets passed to higher layer, vector(packetBytes)"
vector 112 test1.client4.eth[0].mac rxPkOk:vector(packetBytes) ETV
attr interpolationmode none
attr source rxPkOk
attr title "packets received OK, vector(packetBytes)"
vector 113 test1.client4.eth[0].mac passedUpPk:vector(packetBytes) ETV
attr interpolationmode none
attr source packetSentToUpper
attr title "packets passed to higher layer, vector(packetBytes)"
vector 114 test1.client5.eth[0].mac rxPkOk:vector(packetBytes) ETV
attr interpolationmode none
attr source rxPkOk
attr title "packets received OK, vector(packetBytes)"
vector 115 test1.client5.eth[0].mac passedUpPk:vector(packetBytes) ETV
attr interpolationmode none
attr source packetSentToUpper
attr title "packets passed to higher layer, vector(packetBytes)"
vector 116 test1.client6.eth[0].mac rxPkOk:vector(packetBytes) ETV
attr interpolationmode none
attr source rxPkOk
attr title "packets received OK, vector(packetBytes)"
vector 117 test1.client6.eth[0].mac passedUpPk:vector(packetBytes) ETV
attr interpolationmode none
attr source packetSentToUpper
attr title "packets passed to higher layer, vector(packetBytes)"
vector 118 test1.switchD.eth[0].mac rxPkOk:vector(packetBytes) ETV
attr interpolationmode none
attr source rxPkOk
attr title "packets received OK, vector(packetBytes)"
vector 119 test1.switchD.eth[0].mac passedUpPk:vector(packetBytes) ETV
attr interpolationmode none
attr source packetSentToUpper
attr title "packets passed to higher layer, vector(packetBytes)"
vector 120 test1.client4.eth[0].encap decapPk:vector(packetBytes) ETV
attr interpolationmode none
attr source decapPk
attr title "packets decapsulated, vector(packetBytes)"
vector 121 test1.client5.eth[0].encap decapPk:vector(packetBytes) ETV
attr interpolationmode none
attr source decapPk
attr title "packets decapsulated, vector(packetBytes)"
vector 122 test1.client6.eth[0].encap decapPk:vector(packetBytes) ETV
attr interpolationmode none
attr source decapPk
attr title "packets decapsulated, vector(packetBytes)"
vector 123 test1.switchD.eth[0].queue.dataQueue rcvdPk:vector(packetBytes) ETV
attr interpolationmode none
attr title "received packets, vector(packetBytes)"
vector 124 test1.switchD.eth[0].queue.dataQueue queueingTime:vector ETV
attr interpolationmode none
attr title "queueing time, vector"
vector 125 test1.switchD.eth[2].queue.dataQueue rcvdPk:vector(packetBytes) ETV
attr interpolationmode none
attr title "received packets, vector(packetBytes)"
vector 126 test1.switchD.eth[2].queue.dataQueue queueingTime:vector ETV
attr interpolationmode none
attr title "queueing time, vector"
vector 127 test1.switchD.eth[3].queue.dataQueue rcvdPk:vector(packetBytes) ETV
attr interpolationmode none
attr title "received packets, vector(packetBytes)"
vector 128 test1.switchD.eth[3].queue.dataQueue queueingTime:vector ETV
attr interpolationmode none
attr title "queueing time, vector"
vector 129 test1.switchD.eth[0].mac rxPkFromHL:vector(packetBytes) ETV
attr interpolationmode none
attr source rxPkFromHL
attr title "packet bytes from higher layer, vector(packetBytes)"
vector 130 test1.switchD.eth[2].mac rxPkFromHL:vector(packetBytes) ETV
attr interpolationmode none
attr source rxPkFromHL
attr title "packet bytes from higher layer, vector(packetBytes)"
vector 131 test1.switchD.eth[3].mac rxPkFromHL:vector(packetBytes) ETV
attr interpolationmode none
attr source rxPkFromHL
attr title "packet bytes from higher layer, vector(packetBytes)"
vector 132 test1.switchD.eth[0].mac txPk:vector(packetBytes) ETV
attr interpolationmode none
attr source txPk
attr title "packets transmitted, vector(packetBytes)"
vector 133 test1.switchD.eth[2].mac txPk:vector(packetBytes) ETV
attr interpolationmode none
attr source txPk
attr title "packets transmitted, vector(packetBytes)"
vector 134 test1.switchD.eth[3].mac txPk:vector(packetBytes) ETV
attr interpolationmode none
attr source txPk
attr title "packets transmitted, vector(packetBytes)"
vector 135 test1.switchC.eth[0].mac rxPkOk:vector(packetBytes) ETV
attr interpolationmode none
attr source rxPkOk
attr title "packets received OK, vector(packetBytes)"
vector 136 test1.switchC.eth[0].mac passedUpPk:vector(packetBytes) ETV
attr interpolationmode none
attr source packetSentToUpper
attr title "packets passed to higher layer, vector(packetBytes)"
vector 137 test1.switchE.eth[1].mac rxPkOk:vector(packetBytes) ETV
attr interpolationmode none
attr source rxPkOk
attr title "packets received OK, vector(packetBytes)"
vector 138 test1.switchE.eth[1].mac passedUpPk:vector(packetBytes) ETV
attr interpolationmode none
attr source packetSentToUpper
attr title "packets passed to higher layer, vector(packetBytes)"
vector 139 test1.server2.eth[0].mac rxPkOk:vector(packetBytes) ETV
attr interpolationmode none
attr source rxPkOk
attr title "packets received OK, vector(packetBytes)"
vector 140 test1.server2.eth[0].mac passedUpPk:vector(packetBytes) ETV
attr interpolationmode none
attr source packetSentToUpper
attr title "packets passed to higher layer, vector(packetBytes)"
vector 141 test1.server2.eth[0].encap decapPk:vector(packetBytes) ETV
attr interpolationmode none
attr source decapPk
attr title "packets decapsulated, vector(packetBytes)"
vector 142 test1.switchE.eth[0].queue.dataQueue rcvdPk:vector(packetBytes) ETV
attr interpolationmode none
attr title "received packets, vector(packetBytes)"
vector 143 test1.switchE.eth[0].queue.dataQueue queueingTime:vector ETV
attr interpolationmode none
attr title "queueing time, vector"
vector 144 test1.switchE.eth[0].mac rxPkFromHL:vector(packetBytes) ETV
attr interpolationmode none
attr source rxPkFromHL
attr title "packet bytes from higher layer, vector(packetBytes)"
vector 145 test1.switchE.eth[0].mac txPk:vector(packetBytes) ETV
attr interpolationmode none
attr source txPk
attr title "packets transmitted, vector(packetBytes)"
vector 146 test1.server1.eth[0].mac rxPkOk:vector(packetBytes) ETV
attr interpolationmode none
attr source rxPkOk
attr title "packets received OK, vector(packetBytes)"
vector 147 test1.server1.eth[0].mac passedUpPk:vector(packetBytes) ETV
attr interpolationmode none
attr source packetSentToUpper
attr title "packets passed to higher layer, vector(packetBytes)"
vector 148 test1.server1.eth[0].encap decapPk:vector(packetBytes) ETV
attr interpolationmode none
attr source decapPk
attr title "packets decapsulated, vector(packetBytes)"
vector 149 test1.server1.networkLayer.arp sentReply:vector ETV
attr title "ARP replies sent, vector"
vector 150 test1.server1.eth[0].encap encapPk:vector(packetBytes) ETV
attr interpolationmode none
attr source encapPk
attr title "packets encapsulated, vector(packetBytes)"
vector 151 test1.server1.eth[0].queue.dataQueue rcvdPk:vector(packetBytes) ETV
attr interpolationmode none
attr title "received packets, vector(packetBytes)"
vector 152 test1.server1.eth[0].queue.dataQueue queueingTime:vector ETV
attr interpolationmode none
attr title "queueing time, vector"
vector 153 test1.server1.eth[0].mac rxPkFromHL:vector(packetBytes) ETV
attr interpolationmode none
attr source rxPkFromHL
attr title "packet bytes from higher layer, vector(packetBytes)"
vector 154 test1.server1.eth[0].mac txPk:vector(packetBytes) ETV
attr interpolationmode none
attr source txPk
attr title "packets transmitted, vector(packetBytes)"
vector 155 test1.switchE.eth[0].mac rxPkOk:vector(packetBytes) ETV
attr interpolationmode none
attr source rxPkOk
attr title "packets received OK, vector(packetBytes)"
vector 156 test1.switchE.eth[0].mac passedUpPk:vector(packetBytes) ETV
attr interpolationmode none
attr source packetSentToUpper
attr title "packets passed to higher layer, vector(packetBytes)"
vector 157 test1.switchE.eth[1].queue.dataQueue rcvdPk:vector(packetBytes) ETV
attr interpolationmode none
attr title "received packets, vector(packetBytes)"
vector 158 test1.switchE.eth[1].queue.dataQueue queueingTime:vector ETV
attr interpolationmode none
attr title "queueing time, vector"
vector 159 test1.switchE.eth[1].mac rxPkFromHL:vector(packetBytes) ETV
attr interpolationmode none
attr source rxPkFromHL
attr title "packet bytes from higher layer, vector(packetBytes)"
vector 160 test1.switchE.eth[1].mac txPk:vector(packetBytes) ETV
attr interpolationmode none
attr source txPk
attr title "packets transmitted, vector(packetBytes)"
vector 161 test1.switchD.eth[2].mac rxPkOk:vector(packetBytes) ETV
attr interpolationmode none
attr source rxPkOk
attr title "packets received OK, vector(packetBytes)"
vector 162 test1.switchD.eth[2].mac passedUpPk:vector(packetBytes) ETV
attr interpolationmode none
attr source packetSentToUpper
attr title "packets passed to higher layer, vector(packetBytes)"
vector 163 test1.switchD.eth[1].queue.dataQueue rcvdPk:vector(packetBytes) ETV
attr interpolationmode none
attr title "received packets, vector(packetBytes)"
vector 164 test1.switchD.eth[1].queue.dataQueue queueingTime:vector ETV
attr interpolationmode none
attr title "queueing time, vector"
vector 165 test1.switchD.eth[1].mac rxPkFromHL:vector(packetBytes) ETV
attr interpolationmode none
attr source rxPkFromHL
attr title "packet bytes from higher layer, vector(packetBytes)"
vector 166 test1.switchD.eth[1].mac txPk:vector(packetBytes) ETV
attr interpolationmode none
attr source txPk
attr title "packets transmitted, vector(packetBytes)"
vector 167 test1.switchB.eth[1].mac rxPkOk:vector(packetBytes) ETV
attr interpolationmode none
attr source rxPkOk
attr title "packets received OK, vector(packetBytes)"
vector 168 test1.switchB.eth[1].mac passedUpPk:vector(packetBytes) ETV
attr interpolationmode none
attr source packetSentToUpper
attr title "packets passed to higher layer, vector(packetBytes)"
vector 169 test1.switchB.eth[0].queue.dataQueue rcvdPk:vector(packetBytes) ETV
attr interpolationmode none
attr title "received packets, vector(packetBytes)"
vector 170 test1.switchB.eth[0].queue.dataQueue queueingTime:vector ETV
attr interpolationmode none
attr title "queueing time, vector"
vector 171 test1.switchB.eth[0].mac rxPkFromHL:vector(packetBytes) ETV
attr interpolationmode none
attr source rxPkFromHL
attr title "packet bytes from higher layer, vector(packetBytes)"
vector 172 test1.switchB.eth[0].mac txPk:vector(packetBytes) ETV
attr interpolationmode none
attr source txPk
attr title "packets transmitted, vector(packetBytes)"
vector 173 test1.switchA.eth[0].mac rxPkOk:vector(packetBytes) ETV
attr interpolationmode none
attr source rxPkOk
attr title "packets received OK, vector(packetBytes)"
vector 174 test1.switchA.eth[0].mac passedUpPk:vector(packetBytes) ETV
attr interpolationmode none
attr source packetSentToUpper
attr title "packets passed to higher layer, vector(packetBytes)"
vector 175 test1.switchA.eth[4].queue.dataQueue rcvdPk:vector(packetBytes) ETV
attr interpolationmode none
attr title "received packets, vector(packetBytes)"
vector 176 test1.switchA.eth[4].queue.dataQueue queueingTime:vector ETV
attr interpolationmode none
attr title "queueing time, vector"
vector 177 test1.switchA.eth[4].mac rxPkFromHL:vector(packetBytes) ETV
attr interpolationmode none
attr source rxPkFromHL
attr title "packet bytes from higher layer, vector(packetBytes)"
vector 178 test1.switchA.eth[4].mac txPk:vector(packetBytes) ETV
attr interpolationmode none
attr source txPk
attr title "packets transmitted, vector(packetBytes)"
vector 179 test1.client1.eth[0].mac rxPkOk:vector(packetBytes) ETV
attr interpolationmode none
attr source rxPkOk
attr title "packets received OK, vector(packetBytes)"
vector 180 test1.client1.eth[0].mac passedUpPk:vector(packetBytes) ETV
attr interpolationmode none
attr source packetSentToUpper
attr title "packets passed to higher layer, vector(packetBytes)"
vector 181 test1.client1.eth[0].encap decapPk:vector(packetBytes) ETV
attr interpolationmode none
attr source decapPk
attr title "packets decapsulated, vector(packetBytes)"
vector 182 test1.server1.tcp "rcvd seq" ETV
vector 183 test1.server1.tcp "rcvd ack" ETV
vector 184 test1.server1.tcp "advertised window" ETV
vector 185 test1.server1.tcp "send window" ETV
vector 186 test1.server1.tcp tcpRcvQueueBytes ETV
vector 187 test1.server1.tcp "receive window" ETV
vector 188 test1.server1.tcp "sent ack" ETV
vector 189 test1.client1.tcp "rcvd seq" ETV
vector 190 test1.client1.tcp "rcvd ack" ETV
vector 191 test1.client1.tcp "send window" ETV
vector 192 test1.client1.tcpApp[0] sentPk:vector(packetBytes) ETV
attr interpolationmode none
attr source sentPk
attr title "packets sent, vector(packetBytes)"
vector 193 test1.client1.tcp "sent seq" ETV
vector 194 test1.client1.tcp "unacked bytes" ETV
vector 195 test1.server1.tcp "unacked bytes" ETV
vector 196 test1.server1.tcp "rcvd dupAcks" ETV
vector 197 test1.server1.tcpApp[0] rcvdPk:vector(packetBytes) ETV
attr interpolationmode none
attr source rcvdPk
attr title "packets received, vector(packetBytes)"
vector 198 test1.server1.tcpApp[0] endToEndDelay:vector ETV
attr interpolationmode none
attr source messageAge(rcvdPk)
attr title "end-to-end delay, vector"
attr unit s
vector 199 test1.server1.tcpApp[0] sentPk:vector(packetBytes) ETV
attr interpolationmode none
attr source sentPk
attr title "packets sent, vector(packetBytes)"
vector 200 test1.server1.tcp "sent seq" ETV
vector 201 test1.client1.tcp "measured RTT" ETV
vector 202 test1.client1.tcp "smoothed RTT" ETV
vector 203 test1.client1.tcp RTTVAR ETV
vector 204 test1.client1.tcp RTO ETV
vector 205 test1.client1.tcp cwnd ETV
vector 206 test1.client1.tcp "rcvd dupAcks" ETV
vector 207 test1.client1.tcpApp[0] rcvdPk:vector(packetBytes) ETV
attr interpolationmode none
attr source rcvdPk
attr title "packets received, vector(packetBytes)"
vector 208 test1.client1.tcpApp[0] endToEndDelay:vector ETV
attr interpolationmode none
attr source messageAge(rcvdPk)
attr title "end-to-end delay, vector"
attr unit s
vector 209 test1.server1.tcp "measured RTT" ETV
vector 210 test1.server1.tcp "smoothed RTT" ETV
vector 211 test1.server1.tcp RTTVAR ETV
vector 212 test1.server1.tcp RTO ETV
vector 213 test1.server1.tcp cwnd ETV
vector 214 test1.client2.tcp tcpRcvQueueBytes ETV
vector 215 test1.client2.tcp "advertised window" ETV
vector 216 test1.client2.tcp "receive window" ETV
vector 217 test1.client2.tcp "sent ack" ETV
vector 218 test1.client2.networkLayer.arp sentReq:vector ETV
attr title "ARP request sent, vector"
vector 219 test1.client2.eth[0].encap encapPk:vector(packetBytes) ETV
attr interpolationmode none
attr source encapPk
attr title "packets encapsulated, vector(packetBytes)"
vector 220 test1.client2.eth[0].queue.dataQueue rcvdPk:vector(packetBytes) ETV
attr interpolationmode none
attr title "received packets, vector(packetBytes)"
vector 221 test1.client2.eth[0].queue.dataQueue queueingTime:vector ETV
attr interpolationmode none
attr title "queueing time, vector"
vector 222 test1.client2.eth[0].mac rxPkFromHL:vector(packetBytes) ETV
attr interpolationmode none
attr source rxPkFromHL
attr title "packet bytes from higher layer, vector(packetBytes)"
vector 223 test1.client2.eth[0].mac txPk:vector(packetBytes) ETV
attr interpolationmode none
attr source txPk
attr title "packets transmitted, vector(packetBytes)"
vector 224 test1.switchA.eth[3].mac rxPkOk:vector(packetBytes) ETV
attr interpolationmode none
attr source rxPkOk
attr title "packets received OK, vector(packetBytes)"
vector 225 test1.switchA.eth[3].mac passedUpPk:vector(packetBytes) ETV
attr interpolationmode none
attr source packetSentToUpper
attr title "packets passed to higher layer, vector(packetBytes)"
vector 226 test1.switchC.eth[1].queue.dataQueue rcvdPk:vector(packetBytes) ETV
attr interpolationmode none
attr title "received packets, vector(packetBytes)"
vector 227 test1.switchC.eth[1].queue.dataQueue queueingTime:vector ETV
attr interpolationmode none
attr title "queueing time, vector"
vector 228 test1.switchC.eth[1].mac rxPkFromHL:vector(packetBytes) ETV
attr interpolationmode none
attr source rxPkFromHL
attr title "packet bytes from higher layer, vector(packetBytes)"
vector 229 test1.switchC.eth[1].mac txPk:vector(packetBytes) ETV
attr interpolationmode none
attr source txPk
attr title "packets transmitted, vector(packetBytes)"
vector 230 test1.switchA.eth[1].mac rxPkOk:vector(packetBytes) ETV
attr interpolationmode none
attr source rxPkOk
attr title "packets received OK, vector(packetBytes)"
vector 231 test1.switchA.eth[1].mac passedUpPk:vector(packetBytes) ETV
attr interpolationmode none
attr source packetSentToUpper
attr title "packets passed to higher layer, vector(packetBytes)"
vector 232 test1.client3.tcp tcpRcvQueueBytes ETV
vector 233 test1.client3.tcp "advertised window" ETV
vector 234 test1.client3.tcp "receive window" ETV
vector 235 test1.client3.tcp "sent ack" ETV
vector 236 test1.client3.networkLayer.arp sentReq:vector ETV
attr title "ARP request sent, vector"
vector 237 test1.client3.eth[0].encap encapPk:vector(packetBytes) ETV
attr interpolationmode none
attr source encapPk
attr title "packets encapsulated, vector(packetBytes)"
vector 238 test1.client3.eth[0].queue.dataQueue rcvdPk:vector(packetBytes) ETV
attr interpolationmode none
attr title "received packets, vector(packetBytes)"
vector 239 test1.client3.eth[0].queue.dataQueue queueingTime:vector ETV
attr interpolationmode none
attr title "queueing time, vector"
vector 240 test1.client3.eth[0].mac rxPkFromHL:vector(packetBytes) ETV
attr interpolationmode none
attr source rxPkFromHL
attr title "packet bytes from higher layer, vector(packetBytes)"
vector 241 test1.client3.eth[0].mac txPk:vector(packetBytes) ETV
attr interpolationmode none
attr source txPk
attr title "packets transmitted, vector(packetBytes)"
vector 242 test1.switchA.eth[2].mac rxPkOk:vector(packetBytes) ETV
attr interpolationmode none
attr source rxPkOk
attr title "packets received OK, vector(packetBytes)"
vector 243 test1.switchA.eth[2].mac passedUpPk:vector(packetBytes) ETV
attr interpolationmode none
attr source packetSentToUpper
attr title "packets passed to higher layer, vector(packetBytes)"
vector 244 test1.client6.tcp tcpRcvQueueBytes ETV
vector 245 test1.client6.tcp "advertised window" ETV
vector 246 test1.client6.tcp "receive window" ETV
vector 247 test1.client6.tcp "sent ack" ETV
vector 248 test1.client6.networkLayer.arp sentReq:vector ETV
attr title "ARP request sent, vector"
vector 249 test1.client6.eth[0].encap encapPk:vector(packetBytes) ETV
attr interpolationmode none
attr source encapPk
attr title "packets encapsulated, vector(packetBytes)"
vector 250 test1.client6.eth[0].queue.dataQueue rcvdPk:vector(packetBytes) ETV
attr interpolationmode none
attr title "received packets, vector(packetBytes)"
vector 251 test1.client6.eth[0].queue.dataQueue queueingTime:vector ETV
attr interpolationmode none
attr title "queueing time, vector"
vector 252 test1.client6.eth[0].mac rxPkFromHL:vector(packetBytes) ETV
attr interpolationmode none
attr source rxPkFromHL
attr title "packet bytes from higher layer, vector(packetBytes)"
vector 253 test1.client6.eth[0].mac txPk:vector(packetBytes) ETV
attr interpolationmode none
attr source txPk
attr title "packets transmitted, vector(packetBytes)"
vector 254 test1.switchB.eth[4].mac rxPkOk:vector(packetBytes) ETV
attr interpolationmode none
attr source rxPkOk
attr title "packets received OK, vector(packetBytes)"
vector 255 test1.switchB.eth[4].mac passedUpPk:vector(packetBytes) ETV
attr interpolationmode none
attr source packetSentToUpper
attr title "packets passed to higher layer, vector(packetBytes)"
vector 256 test1.server1.tcp "rcvd seq" ETV
vector 257 test1.server1.tcp "rcvd ack" ETV
vector 258 test1.server1.tcp "advertised window" ETV
vector 259 test1.server1.tcp "send window" ETV
vector 260 test1.server1.tcp tcpRcvQueueBytes ETV
vector 261 test1.server1.tcp "receive window" ETV
vector 262 test1.server1.tcp "sent ack" ETV
vector 263 test1.client2.tcp "rcvd seq" ETV
vector 264 test1.client2.tcp "rcvd ack" ETV
vector 265 test1.client2.tcp "send window" ETV
vector 266 test1.client2.tcpApp[0] sentPk:vector(packetBytes) ETV
attr interpolationmode none
attr source sentPk
attr title "packets sent, vector(packetBytes)"
vector 267 test1.client2.tcp "sent seq" ETV
vector 268 test1.client2.tcp "unacked bytes" ETV
vector 269 test1.server1.tcp "rcvd seq" ETV
vector 270 test1.server1.tcp "rcvd ack" ETV
vector 271 test1.server1.tcp "advertised window" ETV
vector 272 test1.server1.tcp "send window" ETV
vector 273 test1.server1.tcp tcpRcvQueueBytes ETV
vector 274 test1.server1.tcp "receive window" ETV
vector 275 test1.server1.tcp "sent ack" ETV
vector 276 test1.server1.tcp "rcvd seq" ETV
vector 277 test1.server1.tcp "rcvd ack" ETV
vector 278 test1.server1.tcp "advertised window" ETV
vector 279 test1.server1.tcp "send window" ETV
vector 280 test1.server1.tcp tcpRcvQueueBytes ETV
vector 281 test1.server1.tcp "receive window" ETV
vector 282 test1.server1.tcp "sent ack" ETV
vector 283 test1.server1.tcp "unacked bytes" ETV
vector 284 test1.server1.tcp "rcvd dupAcks" ETV
vector 285 test1.server1.tcp "sent seq" ETV
vector 286 test1.client6.tcp "rcvd seq" ETV
vector 287 test1.client6.tcp "rcvd ack" ETV
vector 288 test1.client6.tcp "send window" ETV
vector 289 test1.client6.tcpApp[0] sentPk:vector(packetBytes) ETV
attr interpolationmode none
attr source sentPk
attr title "packets sent, vector(packetBytes)"
vector 290 test1.client6.tcp "sent seq" ETV
vector 291 test1.client6.tcp "unacked bytes" ETV
vector 292 test1.client3.tcp "rcvd seq" ETV
vector 293 test1.client3.tcp "rcvd ack" ETV
vector 294 test1.client3.tcp "send window" ETV
vector 295 test1.client3.tcpApp[0] sentPk:vector(packetBytes) ETV
attr interpolationmode none
attr source sentPk
attr title "packets sent, vector(packetBytes)"
vector 296 test1.client3.tcp "sent seq" ETV
vector 297 test1.client3.tcp "unacked bytes" ETV
vector 298 test1.client2.tcp "measured RTT" ETV
vector 299 test1.client2.tcp "smoothed RTT" ETV
vector 300 test1.client2.tcp RTTVAR ETV
vector 301 test1.client2.tcp RTO ETV
vector 302 test1.client2.tcp cwnd ETV
vector 303 test1.client2.tcp "rcvd dupAcks" ETV
vector 304 test1.client2.tcpApp[0] rcvdPk:vector(packetBytes) ETV
attr interpolationmode none
attr source rcvdPk
attr title "packets received, vector(packetBytes)"
vector 305 test1.client2.tcpApp[0] endToEndDelay:vector ETV
attr interpolationmode none
attr source messageAge(rcvdPk)
attr title "end-to-end delay, vector"
attr unit s
vector 306 test1.server1.tcp "unacked bytes" ETV
vector 307 test1.server1.tcp "rcvd dupAcks" ETV
vector 308 test1.server1.tcp "sent seq" ETV
vector 309 test1.server1.tcp "unacked bytes" ETV
vector 310 test1.server1.tcp "rcvd dupAcks" ETV
vector 311 test1.server1.tcp "sent seq" ETV
vector 312 test1.client6.tcp "measured RTT" ETV
vector 313 test1.client6.tcp "smoothed RTT" ETV
vector 314 test1.client6.tcp RTTVAR ETV
vector 315 test1.client6.tcp RTO ETV
vector 316 test1.client6.tcp cwnd ETV
vector 317 test1.client6.tcp "rcvd dupAcks" ETV
vector 318 test1.client6.tcpApp[0] rcvdPk:vector(packetBytes) ETV
attr interpolationmode none
attr source rcvdPk
attr title "packets received, vector(packetBytes)"
vector 319 test1.client6.tcpApp[0] endToEndDelay:vector ETV
attr interpolationmode none
attr source messageAge(rcvdPk)
attr title "end-to-end delay, vector"
attr unit s
vector 320 test1.server1.tcp "measured RTT" ETV
vector 321 test1.server1.tcp "smoothed RTT" ETV
vector 322 test1.server1.tcp RTTVAR ETV
vector 323 test1.server1.tcp RTO ETV
vector 324 test1.server1.tcp cwnd ETV
vector 325 test1.client4.tcp tcpRcvQueueBytes ETV
vector 326 test1.client4.tcp "advertised window" ETV
vector 327 test1.client4.tcp "receive window" ETV
vector 328 test1.client4.tcp "sent ack" ETV
vector 329 test1.client4.networkLayer.arp sentReq:vector ETV
attr title "ARP request sent, vector"
vector 330 test1.client4.eth[0].encap encapPk:vector(packetBytes) ETV
attr interpolationmode none
attr source encapPk
attr title "packets encapsulated, vector(packetBytes)"
vector 331 test1.client4.eth[0].queue.dataQueue rcvdPk:vector(packetBytes) ETV
attr interpolationmode none
attr title "received packets, vector(packetBytes)"
vector 332 test1.client4.eth[0].queue.dataQueue queueingTime:vector ETV
attr interpolationmode none
attr title "queueing time, vector"
vector 333 test1.client4.eth[0].mac rxPkFromHL:vector(packetBytes) ETV
attr interpolationmode none
attr source rxPkFromHL
attr title "packet bytes from higher layer, vector(packetBytes)"
vector 334 test1.client4.eth[0].mac txPk:vector(packetBytes) ETV
attr interpolationmode none
attr source txPk
attr title "packets transmitted, vector(packetBytes)"
vector 335 test1.switchB.eth[2].mac rxPkOk:vector(packetBytes) ETV
attr interpolationmode none
attr source rxPkOk
attr title "packets received OK, vector(packetBytes)"
vector 336 test1.switchB.eth[2].mac passedUpPk:vector(packetBytes) ETV
attr interpolationmode none
attr source packetSentToUpper
attr title "packets passed to higher layer, vector(packetBytes)"
vector 337 test1.client3.tcp "measured RTT" ETV
vector 338 test1.client3.tcp "smoothed RTT" ETV
vector 339 test1.client3.tcp RTTVAR ETV
vector 340 test1.client3.tcp RTO ETV
vector 341 test1.client3.tcp cwnd ETV
vector 342 test1.client3.tcp "rcvd dupAcks" ETV
vector 343 test1.server1.tcp "measured RTT" ETV
vector 344 test1.server1.tcp "smoothed RTT" ETV
vector 345 test1.server1.tcp RTTVAR ETV
vector 346 test1.server1.tcp RTO ETV
vector 347 test1.server1.tcp cwnd ETV
vector 348 test1.client3.tcpApp[0] rcvdPk:vector(packetBytes) ETV
attr interpolationmode none
attr source rcvdPk
attr title "packets received, vector(packetBytes)"
vector 349 test1.client3.tcpApp[0] endToEndDelay:vector ETV
attr interpolationmode none
attr source messageAge(rcvdPk)
attr title "end-to-end delay, vector"
attr unit s
vector 350 test1.server1.tcp "measured RTT" ETV
vector 351 test1.server1.tcp "smoothed RTT" ETV
vector 352 test1.server1.tcp RTTVAR ETV
vector 353 test1.server1.tcp RTO ETV
vector 354 test1.server1.tcp cwnd ETV
vector 355 test1.server1.tcp "rcvd seq" ETV
vector 356 test1.server1.tcp "rcvd ack" ETV
vector 357 test1.server1.tcp "advertised window" ETV
vector 358 test1.server1.tcp "send window" ETV
vector 359 test1.server1.tcp tcpRcvQueueBytes ETV
vector 360 test1.server1.tcp "receive window" ETV
vector 361 test1.server1.tcp "sent ack" ETV
vector 362 test1.client4.tcp "rcvd seq" ETV
vector 363 test1.client4.tcp "rcvd ack" ETV
vector 364 test1.client4.tcp "send window" ETV
vector 365 test1.client4.tcpApp[0] sentPk:vector(packetBytes) ETV
attr interpolationmode none
attr source sentPk
attr title "packets sent, vector(packetBytes)"
vector 366 test1.client4.tcp "sent seq" ETV
vector 367 test1.client4.tcp "unacked bytes" ETV
vector 368 test1.server1.tcp "unacked bytes" ETV
vector 369 test1.server1.tcp "rcvd dupAcks" ETV
vector 370 test1.server1.tcp "sent seq" ETV
vector 371 test1.client4.tcp "measured RTT" ETV
vector 372 test1.client4.tcp "smoothed RTT" ETV
vector 373 test1.client4.tcp RTTVAR ETV
vector 374 test1.client4.tcp RTO ETV
vector 375 test1.client4.tcp cwnd ETV
vector 376 test1.client4.tcp "rcvd dupAcks" ETV
vector 377 test1.client4.tcpApp[0] rcvdPk:vector(packetBytes) ETV
attr interpolationmode none
attr source rcvdPk
attr title "packets received, vector(packetBytes)"
vector 378 test1.client4.tcpApp[0] endToEndDelay:vector ETV
attr interpolationmode none
attr source messageAge(rcvdPk)
attr title "end-to-end delay, vector"
attr unit s
vector 379 test1.client5.tcp tcpRcvQueueBytes ETV
vector 380 test1.client5.tcp "advertised window" ETV
vector 381 test1.client5.tcp "receive window" ETV
vector 382 test1.client5.tcp "sent ack" ETV
vector 383 test1.client5.networkLayer.arp sentReq:vector ETV
attr title "ARP request sent, vector"
vector 384 test1.client5.eth[0].encap encapPk:vector(packetBytes) ETV
attr interpolationmode none
attr source encapPk
attr title "packets encapsulated, vector(packetBytes)"
vector 385 test1.client5.eth[0].queue.dataQueue rcvdPk:vector(packetBytes) ETV
attr interpolationmode none
attr title "received packets, vector(packetBytes)"
vector 386 test1.client5.eth[0].queue.dataQueue queueingTime:vector ETV
attr interpolationmode none
attr title "queueing time, vector"
vector 387 test1.client5.eth[0].mac rxPkFromHL:vector(packetBytes) ETV
attr interpolationmode none
attr source rxPkFromHL
attr title "packet bytes from higher layer, vector(packetBytes)"
vector 388 test1.client5.eth[0].mac txPk:vector(packetBytes) ETV
attr interpolationmode none
attr source txPk
attr title "packets transmitted, vector(packetBytes)"
vector 389 test1.switchB.eth[3].mac rxPkOk:vector(packetBytes) ETV
attr interpolationmode none
attr source rxPkOk
attr title "packets received OK, vector(packetBytes)"
vector 390 test1.switchB.eth[3].mac passedUpPk:vector(packetBytes) ETV
attr interpolationmode none
attr source packetSentToUpper
attr title "packets passed to higher layer, vector(packetBytes)"
vector 391 test1.server1.tcp "measured RTT" ETV
vector 392 test1.server1.tcp "smoothed RTT" ETV
vector 393 test1.server1.tcp RTTVAR ETV
vector 394 test1.server1.tcp RTO ETV
vector 395 test1.server1.tcp cwnd ETV
0	48421 9 0 0 0 0 1 0 0 0 0
1	48430 16229 0 47389 0 0.450184 795 0 8 581 1365
2	64659 9 0 0 0 0 1 0 0 0 0
3	64668 2886 0 49423 0 0.4600752 139 0 6 217 697
4	67554 9 0 0 0 0 1 0 0 0 0
5	67563 1972 0 46792 0 0.4473248 95 0 10 205 1107
6	69535 9 0 0 0 0 1 0 0 0 0
7	69544 558 0 45839 0 0.4437264 27 0 1 13 13
8	70102 9 0 0 0 0 1 0 0 0 0
9	70111 103 0 48299 0 0.4544256 5 0 1 2 2
10	70214 10 0 0 0 0 1 0 0 0 0
11	70224 3203 0 49305 0 0.4595584 147 0 5 143 297
12	73427 10 0 0 0 0 1 0 0 0 0
13	73437 25266 0 49799 0 0.4616688 1163 0 35 5875 120037
14	98703 10 0 0 0 0 1 0 0 0 0
15	98713 10 0 0 0 0 1 0 0 0 0
16	98723 10 0 0 0 0 1 0 0 0 0
17	98733 22118 0 49791 0 0.4616416 1027 0 17 1605 12673
18	120851 10 0 0 0 0 1 0 0 0 0
19	120861 318 0 40615 0 0.426248072045 13 0 1 6 6
20	121179 10 0 0 0 0 1 0 0 0 0
21	121189 1658 0 46139 0 0.4448432 75 0 1 37 37
22	122847 10 0 0 0 0 1 0 0 0 0
23	122857 2773 0 49770 0 0.4615232 127 0 1 63 63
24	125630 10 0 0 0 0 1 0 0 0 0
25	125640 16654 0 46958 0 0.4481264 775 0 7 465 863
26	142294 10 0 0 0 0 1 0 0 0 0
27	142304 16582 0 49761 0 0.4614976 773 0 6 442 670
28	158886 10 0 0 0 0 1 0 0 0 0
29	158896 25326 0 49796 0 0.4616592 1164 0 27 5026 79666
30	184222 10 0 0 0 0 1 0 0 0 0
31	184232 596 0 44982 0 0.4412448 27 0 1 13 13
32	184828 10 0 0 0 0 1 0 0 0 0
33	184838 286 0 47853 0 0.452368 13 0 1 6 6
34	185124 10 0 0 0 0 1 0 0 0 0
35	185134 2846 0 49402 0 0.460024 131 0 1 65 65
36	187980 10 0 0 0 0 1 0 0 0 0
37	187990 318 0 41135 0 0.428305672045 13 0 1 6 6
38	188308 10 0 0 0 0 1 0 0 0 0
39	188318 4057 0 49650 0 0.4610064 187 0 5 125 205
40	192375 10 0 0 0 0 1 0 0 0 0
41	192385 4200 0 49070 0 0.4585248 193 0 4 116 156
42	196585 10 0 0 0 0 1 0 0 0 0
43	196595 19784 0 49779 0 0.4615392 920 0 8 572 1056
44	216379 10 0 0 0 0 1 0 0 0 0
45	216389 24036 0 49743 0 0.4614368 1116 0 7 956 2894
46	240425 10 0 0 0 0 1 0 0 0 0
47	240435 320 0 41657 0 0.430363272045 13 0 1 6 6
48	240755 10 0 0 0 0 1 0 0 0 0
49	240765 23725 0 49807 0 0.4616848 1101 0 7 1002 3206
50	264490 10 0 0 0 0 1 0 0 0 0
51	264500 24010 0 49727 0 0.4612912 1116 0 7 854 2338
52	288510 12419 28 47385 0 0.450184 579 0 0 0 0
53	300929 10146 28 47385 0 0.450184 397 7504 113309 24784300 1910452977388
54	311075 9675 28 47385 0 0.450184 396 7504 7504 2971584 22298766336
55	320750 10072 28 47385 0 0.450184 396 0 105805 21797495 1560785727251
56	330822 11 29 29 0 0 1 1 1 1 1
57	330833 9114 31 47387 0 0.450184 397 28 576 128968 70301856
58	339947 9114 33 47389 0 0.450184 397 64 594 137238 75210252
59	349061 8853 33 47389 0 0.450184 397 0 0.003816 0.0617936 0.00013282214144
60	357914 9116 35 47391 0 0.450184 397 64 594 137238 75210252
61	367030 9109 36 47485 0.0000576 0.4506656 397 64 594 137238 75210252
62	376139 9111 38 47921 0.0020576 0.4526656 397 64 594 137238 75210252
63	385250 9111 38 47921 0.0020576 0.4526656 397 64 594 137238 75210252
64	394361 11828 44 49791 0.0020576 0.4616416 513 64 594 182822 100794668
65	406189 12202 44 49791 0.0020576 0.4616416 513 0 0.0064528 0.250503740654 0.0009101124478317
66	418391 160 45 40615 0.0020576 0.426248072045 6 64 64 384 24576
67	418551 154 45 40615 0.0020576 0.426248072045 6 0 0 0 0
68	418705 876 46 46139 0.0020576 0.4448432 37 64 594 10318 5382652
69	419581 824 46 46139 0.0020576 0.4448432 37 0 0 0 0
70	420405 1474 47 49770 0.0020576 0.4615232 63 64 594 18342 9674028
71	421879 1400 47 49770 0.0020576 0.4615232 63 0 6.72e-005 0.000118327955 7.129907782482e-009
72	423279 11822 52 49793 0.0020576 0.4616416 513 64 594 182822 100794668
73	435101 160 53 40624 0.0020576 0.426248072045 6 64 64 384 24576
74	435261 876 54 46141 0.0020576 0.4448432 37 64 594 10318 5382652
75	436137 1469 55 49772 0.0020576 0.4615232 63 64 594 18342 9674028
76	437606 11837 56 49810 0.0021152 0.4616992 513 64 594 182822 100794668
77	449443 160 57 40645 0.0021152 0.426305672045 6 64 64 384 24576
78	449603 874 58 46291 0.0021152 0.4453248 37 64 594 10318 5382652
79	450477 1452 59 49764 0.0021152 0.4615136 62 64 594 17748 9321192
80	451929 11610 64 49720 0.0041152 0.461256 503 64 594 180592 99707488
81	463539 11610 64 49720 0.0041152 0.461256 503 64 594 180592 99707488
82	475149 160 65 41126 0.0041152 0.428305672045 6 64 64 384 24576
83	475309 160 65 41126 0.0041152 0.428305672045 6 64 64 384 24576
84	475469 874 66 46784 0.0041152 0.4473248 37 64 594 10318 5382652
85	476343 874 66 46784 0.0041152 0.4473248 37 64 594 10318 5382652
86	477217 1380 67 49415 0.0041152 0.4600752 59 64 594 15966 8262684
87	478597 1380 67 49415 0.0041152 0.4600752 59 64 594 15966 8262684
88	479977 874 70 46785 0.0041152 0.4473248 37 28 576 9452 5007280
89	480851 1380 71 49416 0.0041152 0.4600752 59 28 576 14620 7683888
90	482231 13656 79 49787 0.0041152 0.461616 590 64 594 212660 117500840
91	495887 14043 79 49796 0.0041152 0.4616592 573 0 0.0082416 0.720252727955 0.0038606545889894
92	509930 309 80 44982 0.0041152 0.4412448 13 64 594 2422 1099468
93	510239 293 80 44982 0.0041152 0.4412448 13 0 0 0 0
94	510532 144 81 47853 0.0041152 0.452368 6 64 64 384 24576
95	510676 138 81 47853 0.0041152 0.452368 6 0 0 0 0
96	510814 1512 82 49402 0.0041152 0.460024 65 64 594 19530 10379700
97	512326 1418 82 49402 0.0041152 0.460024 65 0 0 0 0
98	513744 160 83 41135 0.0041152 0.428305672045 6 64 64 384 24576
99	513904 154 83 41135 0.0041152 0.428305672045 6 0 0 0 0
100	514058 13821 91 49798 0.0041152 0.4616592 573 64 594 205212 113246328
101	527879 322 92 44984 0.0041152 0.4412448 13 64 594 2422 1099468
102	528201 150 93 47855 0.0041152 0.452368 6 64 64 384 24576
103	528351 1577 94 49404 0.0041152 0.460024 65 64 594 19530 10379700
104	529928 166 95 41139 0.0041152 0.428305672045 6 64 64 384 24576
105	530094 13775 96 49794 0.0041728 0.4616496 572 64 594 205148 113242232
106	543869 319 97 45127 0.0041728 0.4417264 13 64 594 2422 1099468
107	544188 151 98 47864 0.0041728 0.4524256 6 64 64 384 24576
108	544339 1586 99 49510 0.0041728 0.4605056 65 64 594 19530 10379700
109	545925 167 100 41150 0.0041728 0.428363272045 6 64 64 384 24576
110	546092 13444 106 49740 0.0061728 0.4614368 558 64 594 202662 112138668
111	559536 13444 106 49740 0.0061728 0.4614368 558 64 594 202662 112138668
112	572980 320 107 45831 0.0061728 0.4437264 13 64 594 2422 1099468
113	573300 320 107 45831 0.0061728 0.4437264 13 64 594 2422 1099468
114	573620 152 108 48293 0.0061728 0.4544256 6 64 64 384 24576
115	573772 152 108 48293 0.0061728 0.4544256 6 64 64 384 24576
116	573924 1537 109 49297 0.0061728 0.4595584 63 64 594 18342 9674028
117	575461 1537 109 49297 0.0061728 0.4595584 63 64 594 18342 9674028
118	576998 167 110 41650 0.0061728 0.430363272045 6 64 64 384 24576
119	577165 167 110 41650 0.0061728 0.430363272045 6 64 64 384 24576
120	577332 320 112 45832 0.0061728 0.4437264 13 28 576 2060 1006768
121	577652 152 113 48294 0.0061728 0.4544256 6 28 28 168 4704
122	577804 1537 114 49298 0.0061728 0.4595584 63 28 576 16924 9010992
123	579341 2332 122 49070 0.0061728 0.4585248 96 64 594 29464 15737776
124	581673 2267 122 49070 0.0061728 0.4585248 96 0 0.000424 0.003144 1.10855424e-006
125	583940 13459 123 49743 0.0061728 0.4614368 558 64 594 202662 112138668
126	597399 13381 123 49737 0.0061728 0.4613696 557 0 0.0004912 0.040297268609 1.6444715520898e-005
127	610780 167 124 41657 0.0061728 0.430363272045 6 64 64 384 24576
128	610947 161 124 41657 0.0061728 0.430363272045 6 0 0 0 0
129	611108 2330 131 49072 0.0061728 0.4585248 96 64 594 29464 15737776
130	613438 13428 132 49739 0.0061728 0.4613696 557 64 594 202598 112134572
131	626866 167 133 41659 0.0061728 0.430363272045 6 64 64 384 24576
132	627033 2333 134 49169 0.0062304 0.4590064 96 64 594 29464 15737776
133	629366 13409 135 49732 0.0062304 0.46136 556 64 594 202004 111781736
134	642775 167 136 41674 0.0062304 0.430420872045 6 64 64 384 24576
135	642942 2333 140 49646 0.0082304 0.4610064 96 64 594 29464 15737776
136	645275 2333 140 49646 0.0082304 0.4610064 96 64 594 29464 15737776
137	647608 13269 141 49803 0.0082304 0.4616848 550 64 594 200030 110710940
138	660877 13269 141 49803 0.0082304 0.4616848 550 64 594 200030 110710940
139	674146 167 142 42196 0.0082304 0.432420872045 6 64 64 384 24576
140	674313 167 142 42196 0.0082304 0.432420872045 6 64 64 384 24576
141	674480 167 145 42197 0.0082304 0.432420872045 6 28 28 168 4704
142	674647 13269 148 49807 0.0082304 0.4616848 550 64 594 200030 110710940
143	687916 13171 148 49807 0.0082304 0.4616848 550 0 0.000424 0.043335114811 1.8068254861582e-005
144	701087 13268 151 49809 0.0082304 0.4616848 550 64 594 200030 110710940
145	714355 13247 152 49802 0.008288 0.4616752 549 64 594 199436 110358104
146	727602 13150 154 49813 0.010288 0.4617104 545 64 594 197060 108946760
147	740752 13150 154 49813 0.010288 0.4617104 545 64 594 197060 108946760
148	753902 13150 155 49814 0.010288 0.4617104 545 28 576 185764 101902640
149	767052 137 157 42876 0.010288 0.434984 6 1 1 6 6
150	767189 14242 159 49710 0.010288 0.4612192 593 28 576 172140 92404336
151	781431 14242 161 49712 0.010288 0.4612192 593 64 594 184762 99029908
152	795673 14728 161 49799 0.010288 0.4616688 569 0 0.012528 0.8840368 0.00680956360448
153	810401 13674 163 49801 0.010288 0.4616688 569 64 594 181106 97536644
154	824075 13643 164 49795 0.0103456 0.4616592 568 64 594 181042 97532548
155	837718 13401 166 49724 0.0123456 0.4612912 558 64 594 178282 96096628
156	851119 13401 166 49724 0.0123456 0.4612912 558 64 594 178282 96096628
157	864520 13401 169 49727 0.0123456 0.4612912 558 64 594 178282 96096628
158	877921 13029 169 49717 0.0123456 0.461224 557 0 0.000424 0.026306117514 1.0922238148941e-005
159	890950 13367 171 49719 0.0123456 0.461224 557 64 594 178218 96092532
160	904317 13380 172 49811 0.0124032 0.4617056 557 64 594 178218 96092532
161	917697 13208 174 49776 0.0144032 0.4615392 550 64 594 175650 94668900
162	930905 13208 174 49776 0.0144032 0.4615392 550 64 594 175650 94668900
163	944113 11043 177 49779 0.0144032 0.4615392 460 64 594 146570 78955700
164	955156 10546 177 49753 0.0144032 0.461472 459 0 0.0004912 0.010054327955 4.0987321255905e-006
165	965702 11011 179 49755 0.0144032 0.461472 459 64 594 146506 78951604
166	976713 10976 180 49748 0.0144608 0.4614624 458 64 594 145912 78598768
167	987689 10882 182 49757 0.0164608 0.4614976 454 64 594 143536 77187424
168	998571 10882 182 49757 0.0164608 0.4614976 454 64 594 143536 77187424
169	1009453 9242 185 49761 0.0164608 0.4614976 386 64 594 122224 65749216
170	1018695 8750 185 49761 0.0164608 0.4614976 386 0 0.000424 0.003232 1.17328384e-006
171	1027445 9242 187 49763 0.0164608 0.4614976 386 64 594 122224 65749216
172	1036687 9221 188 46483 0.0165184 0.4461264 385 64 594 121630 65396380
173	1045908 9225 190 46955 0.0185184 0.4481264 385 64 594 121630 65396380
174	1055133 9225 190 46955 0.0185184 0.4481264 385 64 594 121630 65396380
175	1064358 9283 193 46958 0.0185184 0.4481264 387 64 594 121758 65404572
176	1073641 8961 193 46958 0.0185184 0.4481264 387 0 0.000424 0.005873340654 1.9574912414129e-006
177	1082602 9275 195 46960 0.0185184 0.4481264 387 64 594 121758 65404572
178	1091877 9285 196 46969 0.018576 0.448184 387 64 594 121758 65404572
179	1101162 9288 198 47382 0.020576 0.450184 387 64 594 121758 65404572
180	1110450 9288 198 47382 0.020576 0.450184 387 64 594 121758 65404572
181	1119738 9288 199 47383 0.020576 0.450184 387 28 576 113500 61036848
182	1129026 10304 244 49816 0.030864 0.4617104 389 0 108809 22070188 1617072725524
183	1139330 10305 244 49816 0.030864 0.4617104 389 0 105805 21056860 1482422841076
184	1149635 10718 244 49816 0.030864 0.4617104 403 7505 116849 25338731 1988359353091
185	1160353 4710 244 47528 0.030864 0.4507696 185 7504 7504 1388240 10417352960
186	1165063 13635 244 49816 0.030864 0.4617104 606 0 0 0 0
187	1178698 10241 244 49816 0.030864 0.4617104 402 7504 7504 3016608 22636626432
188	1188939 10636 244 49816 0.030864 0.4617104 402 1 109345 22314618 1630768614690
189	1199575 10104 288 47385 0.041152 0.450184 381 7716 105805 21561352 1548258187420
190	1209679 10065 288 47385 0.041152 0.450184 381 1 105593 20082157 1393411399133
191	1219744 5048 288 47385 0.041152 0.450184 198 7504 7504 1485792 11149383168
192	1224792 26 292 292 0.041152 0.041152 1 1048576 1048576 1048576 1099511627776
193	1224818 5581 294 47385 0.041152 0.450184 211 1 112561 11875291 893251434531
194	1230399 10068 294 47385 0.041152 0.450184 395 0 7504 2760936 19773147200
195	1240467 9368 373 47528 0.05144 0.4507696 368 0 7504 2558328 18305064640
196	1249835 8716 380 49816 0.0536272 0.4617104 387 0 0 0 0
197	1258551 7506 381 49707 0.0536272 0.4612192 305 536 536 163480 87625280
198	1266057 6896 381 49707 0.0536272 0.4612192 305 0 0 0 0
199	1272953 7811 381 49707 0.0536272 0.4612192 305 1072 1072 326960 350501120
200	1280764 5222 383 47528 0.0536272 0.4507696 197 7717 112773 11868265 898039331933
201	1285986 503 464 43760 0.0639152 0.4376896 17 0.022696 0.0333344 0.3965376 0.0093559717376
202	1286489 595 464 43760 0.0639152 0.4376896 17 0.0028454 0.021682097483 0.244762917629 0.0040122910331217
203	1287084 590 464 43760 0.0639152 0.4376896 17 0.084504308273 0.6590954 4.83192662195 1.8832504477106
204	1287674 477 464 43760 0.0639152 0.4376896 17 1 2.639227 23.088813200886 35.892006411247
205	1288151 5217 464 47385 0.0639152 0.450184 197 1072 106128 10559200 749008827008
206	1293368 8549 464 47385 0.0639152 0.450184 380 0 0 0 0
207	1301917 4481 487 43722 0.0661024 0.4376224 183 536 536 98088 52575168
208	1306398 4115 487 43722 0.0661024 0.4376224 183 0 0 0 0
209	1310513 474 623 45756 0.0768816 0.4434944 16 0.022696 0.0316976 0.3898672 0.00961768170752
210	1310987 549 623 45756 0.0768816 0.4434944 16 0.0029068 0.022446226781 0.232743612543 0.0038663204163979
211	1311536 549 623 45756 0.0768816 0.4434944 16 0.096605384235 0.6591568 4.753332124604 1.8788956601089
212	1312085 444 623 45756 0.0768816 0.4434944 16 1 2.639534 22.101907780979 34.935886726838
213	1312529 4831 623 47528 0.0768816 0.4507696 183 1072 98624 9122184 601442396864
214	1317360 2077 17357 49418 0.274406751152 0.4600752 91 0 0 0 0
215	1319437 1853 17357 49418 0.274406751152 0.4600752 69 7504 96792 6079088 542959645696
216	1321290 1759 17357 49418 0.274406751152 0.4600752 68 7504 7504 510272 3829081088
217	1323049 1823 17357 49418 0.274406751152 0.4600752 68 0 89288 5484352 449687242496
218	1324872 28 17358 17358 0.274406751152 0.274406751152 1 1 1 1 1
219	1324900 1690 17360 49421 0.274406751152 0.4600752 69 28 576 25800 14307488
220	1326590 1690 17362 49423 0.274406751152 0.4600752 69 64 594 27206 15278444
221	1328280 1873 17362 49423 0.274406751152 0.4600752 69 0 0.0027456 0.0462304 7.805636096e-005
222	1330153 1687 17364 49425 0.274406751152 0.4600752 69 64 594 27206 15278444
223	1331840 1685 17365 49434 0.274464351152 0.4601328 69 64 594 27206 15278444
224	1333525 1662 17549 49788 0.276464351152 0.4616416 68 64 594 27142 15274348
225	1335187 1662 17549 49788 0.276464351152 0.4616416 68 64 594 27142 15274348
226	1336849 2253 19454 49650 0.2917392 0.4610064 93 64 594 29272 15725488
227	1339102 2210 19454 49650 0.2917392 0.4610064 93 0 0.000424 0.005088 2.10935808e-006
228	1341312 2254 19456 49652 0.2917392 0.4610064 93 64 594 29272 15725488
229	1343566 2249 19463 49756 0.2917968 0.461488 93 64 594 29272 15725488
230	1345815 2200 19686 49766 0.2937968 0.4615232 91 64 594 28084 15019816
231	1348015 2200 19686 49766 0.2937968 0.4615232 91 64 594 28084 15019816
232	1350215 1394 19977 46787 0.296422308194 0.4473248 61 0 0 0 0
233	1351609 1259 19977 46787 0.296422308194 0.4473248 47 7504 97933 4274438 396051906078
234	1352868 1189 19977 46787 0.296422308194 0.4473248 46 7504 7504 345184 2590260736
235	1354057 1231 19977 46787 0.296422308194 0.4473248 46 0 90429 3839361 327759764005
236	1355288 28 19978 19978 0.296422308194 0.296422308194 1 1 1 1 1
237	1355316 1149 19980 46790 0.296422308194 0.4473248 47 28 576 17416 9649824
238	1356465 1149 19982 46792 0.296422308194 0.4473248 47 64 594 18378 10305972
239	1357614 1297 19982 46792 0.296422308194 0.4473248 47 0 0.0048576 0.048528 0.00013949408768
240	1358911 1152 19984 46794 0.296422308194 0.4473248 47 64 594 18378 10305972
241	1360063 1147 19987 46799 0.296479908194 0.4473824 47 64 594 18378 10305972
242	1361210 1147 20188 47219 0.298479908194 0.4493824 47 64 594 18378 10305972
243	1362357 1147 20188 47219 0.298479908194 0.4493824 47 64 594 18378 10305972
244	1363504 2264 20550 49300 0.301381685189 0.4595584 99 0 0 0 0
245	1365768 1969 20550 49300 0.301381685189 0.4595584 73 7504 103857 6825928 646843999528
246	1367737 1863 20550 49300 0.301381685189 0.4595584 72 7504 7504 540288 4054321152
247	1369600 1931 20550 49300 0.301381685189 0.4595584 72 0 96353 6196255 541806605111
248	1371531 28 20551 20551 0.301381685189 0.301381685189 1 1 1 1 1
249	1371559 1786 20553 49303 0.301381685189 0.4595584 73 28 576 25960 14313888
250	1373345 1786 20555 49305 0.301381685189 0.4595584 73 64 594 27462 15294828
251	1375131 1943 20555 49305 0.301381685189 0.4595584 73 0 0.0019856 0.027664 3.094917632e-005
252	1377074 1785 20557 49307 0.301381685189 0.4595584 73 64 594 27462 15294828
253	1378859 1786 20560 49320 0.301439285189 0.459616 73 64 594 27462 15294828
254	1380645 1786 20820 49784 0.303439285189 0.461616 73 64 594 27462 15294828
255	1382431 1786 20820 49784 0.303439285189 0.461616 73 64 594 27462 15294828
256	1384217 1229 21513 45724 0.3078384 0.4434272 46 68601 84146 3538931 273507142245
257	1385446 1225 21513 45724 0.3078384 0.4434272 46 0 85000 3595056 287398314112
258	1386671 1604 21513 45724 0.3078384 0.4434272 60 76106 91650 5100216 435206025456
259	1388275 437 21513 45724 0.3078384 0.4434272 17 7504 7504 127568 957270272
260	1388712 2000 21513 45724 0.3078384 0.4434272 88 0 0 0 0
261	1390712 1518 21513 45724 0.3078384 0.4434272 59 7504 7504 442736 3322290944
262	1392230 1577 21513 45724 0.3078384 0.4434272 59 68602 84146 4581374 357334350284
263	1393807 1419 22813 49418 0.3181264 0.4600752 53 76959 88752 4364567 360002355841
264	1395226 1419 22813 49418 0.3181264 0.4600752 53 68602 84146 4076498 314851054388
265	1396645 775 22813 48200 0.3181264 0.4538912 30 7504 7504 225120 1689300480
266	1397420 29 22817 22817 0.3181264 0.3181264 1 1048576 1048576 1048576 1099511627776
267	1397449 1154 22819 48200 0.3181264 0.4538912 43 68602 91114 3433894 276126381164
268	1398603 1519 22819 48200 0.3181264 0.4538912 59 0 7504 329640 2156156480
269	1400122 1602 23899 49706 0.32752 0.4612192 60 75345 97858 5170391 448088080333
270	1401724 1598 23899 49706 0.32752 0.4612192 60 0 89921 5075395 437071593483
271	1403322 1985 23899 49706 0.32752 0.4612192 74 82850 105898 6938652 653632774408
272	1405307 436 23899 45668 0.32752 0.4432928 17 7504 7504 127568 957270272
273	1405743 2633 23899 49706 0.32752 0.4612192 116 0 0 0 0
274	1408376 1875 23899 49706 0.32752 0.4612192 73 7504 7504 547792 4110631168
275	1410251 1948 23899 49706 0.32752 0.4612192 73 75346 98394 6308010 547987406660
276	1412199 852 24180 49573 0.329552 0.460728 32 74105 85898 2548271 203329561293
277	1413051 848 24180 49573 0.329552 0.460728 32 0 86141 2614091 220492995815
278	1413899 1063 24180 49573 0.329552 0.460728 40 81610 93938 3495416 305935284864
279	1414962 229 24180 42215 0.329552 0.4324608 9 7504 7504 67536 506790144
280	1415191 1403 24180 49573 0.329552 0.460728 62 0 0 0 0
281	1416594 998 24180 49573 0.329552 0.460728 39 7504 7504 292656 2196090624
282	1417592 1037 24180 49573 0.329552 0.460728 39 74106 86434 3121150 250236782940
283	1418629 814 24270 45724 0.3301104 0.4434272 32 0 7504 127032 688073920
284	1419443 999 24389 45724 0.3310928 0.4434272 44 0 0 0 0
285	1420442 775 24392 45724 0.3310928 0.4434272 29 76960 91968 2449456 207474062464
286	1421217 1529 24999 49300 0.3357504 0.4595584 57 81880 95817 5005432 440353202184
287	1422746 1529 24999 49300 0.3357504 0.4595584 57 75346 90890 4797490 405289349220
288	1424275 774 24999 46488 0.3357504 0.4461616 30 7504 7504 225120 1689300480
289	1425049 29 25003 25003 0.3357504 0.3357504 1 1048576 1048576 1048576 1099511627776
290	1425078 1151 25005 46488 0.3357504 0.4461616 43 75346 97858 3723886 324398449484
291	1426229 1517 25005 46488 0.3357504 0.4461616 59 0 7504 329640 2156156480
292	1427746 829 25530 46787 0.33984 0.4473248 31 82388 89893 2647858 226297521294
293	1428575 829 25530 46787 0.33984 0.4473248 31 74106 82146 2444686 193024273596
294	1429404 410 25530 44675 0.33984 0.440448 16 7504 7504 120064 900960256
295	1429814 27 25534 25534 0.33984 0.33984 1 1048576 1048576 1048576 1099511627776
296	1429841 775 25536 44675 0.33984 0.440448 29 74106 89114 2366690 193728781780
297	1430616 791 25536 44675 0.33984 0.440448 31 0 7504 127032 688073920
298	1431407 154 25727 46669 0.3413808 0.446968 5 0.0232544 0.0321632 0.1288416 0.00337395577344
299	1431561 169 25727 46669 0.3413808 0.446968 5 0.0029068 0.012816081152 0.039129031933 0.00036578702269252
300	1431730 168 25727 46669 0.3413808 0.446968 5 0.394612148438 0.6591568 2.590243610157 1.3857837184441
301	1431898 168 25727 46669 0.3413808 0.446968 5 1.591264674904 2.639534 10.400103472561 22.322185197109
302	1432066 761 25727 48200 0.3413808 0.4538912 29 1072 16080 248704 2716096384
303	1432827 1184 25727 49418 0.3413808 0.4600752 52 0 0 0 0
304	1434011 568 25994 49419 0.343568 0.4600752 23 536 536 12328 6607808
305	1434579 522 25994 49419 0.343568 0.4600752 23 0 0 0 0
306	1435101 815 26035 45668 0.3439808 0.4432928 32 0 7504 127032 688073920
307	1435916 1318 26225 49706 0.345744 0.4612192 58 0 0 0 0
308	1437234 774 26230 45668 0.345744 0.4432928 29 81881 96889 2592165 232283879405
309	1438008 400 27068 42215 0.3517568 0.4324608 16 0 4288 30552 84752320
310	1438408 679 27198 49573 0.3527392 0.460728 30 0 0 0 0
311	1439087 397 27201 42215 0.3527392 0.4324608 15 82389 89893 1292115 111384521095
312	1439484 153 27378 42979 0.3539744 0.4353888 5 0.018224 0.0232208 0.0996384 0.00200284688896
313	1439637 168 27378 42979 0.3539744 0.4353888 5 0.002278 0.009836166308 0.030785235839 0.00022457589079983
314	1439805 167 27378 42979 0.3539744 0.4353888 5 0.392220613672 0.658528 2.583145034766 1.3789944048755
315	1439972 167 27378 42979 0.3539744 0.4353888 5 1.578718620996 2.63639 10.363365374903 22.181400793257
316	1440139 760 27378 46488 0.3539744 0.4461616 29 1072 16080 248704 2716096384
317	1440899 1278 27378 49300 0.3539744 0.4595584 56 0 0 0 0
318	1442177 671 27639 49301 0.3557376 0.4595584 27 536 536 14472 7756992
319	1442848 617 27639 49301 0.3557376 0.4595584 27 0 0 0 0
320	1443465 122 27651 45405 0.3557536 0.442688 4 0.0246608 0.0317856 0.1115952 0.00315537848064
321	1443587 135 27651 45405 0.3557536 0.442688 4 0.0030826 0.011732123047 0.029470338672 0.00025927899118535
322	1443722 133 27651 45405 0.3557536 0.442688 4 0.449331828906 0.6593326 2.198534182031 1.2329329607195
323	1443855 134 27651 45405 0.3557536 0.442688 4 1.809059438671 2.640413 8.823607066796 19.848655675018
324	1443989 385 27651 45724 0.3557536 0.4434272 15 1072 8576 72360 429507520
325	1444374 348 27921 45834 0.357594682486 0.4437264 15 0 0 0 0
326	1444722 364 27921 45834 0.357594682486 0.4437264 13 7504 105113 1254924 129730475244
327	1445086 315 27921 45834 0.357594682486 0.4437264 12 7504 7504 90048 675720192
328	1445401 323 27921 45834 0.357594682486 0.4437264 12 0 97609 1061371 102412414059
329	1445724 28 27922 27922 0.357594682486 0.357594682486 1 1 1 1 1
330	1445752 320 27924 45837 0.357594682486 0.4437264 13 28 576 4264 2331552
331	1446072 320 27926 45839 0.357594682486 0.4437264 13 64 594 4542 2494428
332	1446392 333 27926 45839 0.357594682486 0.4437264 13 0 0.0004912 0.0015408 7.2834816e-007
333	1446725 321 27928 45841 0.357594682486 0.4437264 13 64 594 4542 2494428
334	1447046 317 27935 45858 0.357652282486 0.443784 13 64 594 4542 2494428
335	1447363 317 28221 46403 0.359652282486 0.445784 13 64 594 4542 2494428
336	1447680 317 28221 46403 0.359652282486 0.445784 13 64 594 4542 2494428
337	1447997 121 28770 43532 0.3630272 0.4369552 4 0.022696 0.028536 0.0971152 0.00238216637184
338	1448118 132 28770 43532 0.3630272 0.4369552 4 0.0028984 0.010163154688 0.025973117188 0.00019738905624612
339	1448250 134 28770 43532 0.3630272 0.4369552 4 0.447992008594 0.6591484 2.195361177344 1.2297523853445
340	1448384 131 28770 43532 0.3630272 0.4369552 4 1.802131189064 2.639492 8.807417826564 19.783537613091
341	1448515 386 28770 44675 0.3630272 0.440448 15 1072 8576 72360 429507520
342	1448901 684 28770 46787 0.3630272 0.4473248 30 0 0 0 0
343	1449585 123 29016 44508 0.3644592 0.4399632 4 0.0187152 0.0284352 0.0942192 0.00228919903488
344	1449708 135 29016 44508 0.3644592 0.4399632 4 0.0023394 0.009994008984 0.024261137109 0.00018038425296259
345	1449843 133 29016 44508 0.3644592 0.4399632 4 0.447986763281 0.6585894 2.194044728906 1.2281426238764
346	1449976 134 29016 44508 0.3644592 0.4399632 4 1.801941062108 2.636697 8.800440052733 19.749713354812
347	1450110 386 29016 45668 0.3644592 0.4432928 15 1072 8576 72360 429507520
348	1450496 373 29109 46788 0.3652144 0.4473248 15 536 536 8040 4309440
349	1450869 343 29109 46788 0.3652144 0.4473248 15 0 0 0 0
350	1451212 89 31011 41599 0.376976 0.4302272 3 0.0242368 0.0289472 0.077488 0.00201604727808
351	1451301 93 31011 41599 0.376976 0.4302272 3 0.0030296 0.0085961875 0.0173146875 0.00011543649890516
352	1451394 95 31011 41599 0.376976 0.4302272 3 0.50999511875 0.6592796 1.74880366875 1.0305984160131
353	1451489 92 31011 41599 0.376976 0.4302272 3 2.0485766625 2.640148 7.0125293625 16.567116087786
354	1451581 178 31011 42215 0.376976 0.4324608 7 1072 4288 18760 58321088
355	1451759 324 32199 48497 0.3840032 0.4553248 12 89398 93151 1093155 99604637887
356	1452083 320 32199 48497 0.3840032 0.4553248 12 0 97609 1061371 102412414059
357	1452403 438 32199 48497 0.3840032 0.4553248 16 96903 100655 1584216 156889493632
358	1452841 130 32199 48497 0.3840032 0.4553248 5 7504 7504 37520 281550080
359	1452971 506 32199 48497 0.3840032 0.4553248 22 0 0 0 0
360	1453477 390 32199 48497 0.3840032 0.4553248 15 7504 7504 112560 844650240
361	1453867 405 32199 48497 0.3840032 0.4553248 15 89399 93151 1374753 126022358959
362	1454272 188 34147 45834 0.395232 0.4437264 7 96000 97073 674686 65029728438
363	1454460 188 34147 45834 0.395232 0.4437264 7 89399 91007 632761 57200613639
364	1454648 103 34147 44825 0.395232 0.4408464 4 7504 7504 30016 225240064
365	1454751 28 34151 34151 0.395232 0.395232 1 1048576 1048576 1048576 1099511627776
366	1454779 188 34153 44825 0.395232 0.4408464 7 89399 92615 637049 57983962631
367	1454967 176 34153 44825 0.395232 0.4408464 7 0 2144 6968 10055360
368	1455143 200 36248 48497 0.4059232 0.4553248 8 0 2144 6968 10055360
369	1455343 230 36580 48497 0.4073968 0.4553248 10 0 0 0 0
370	1455573 189 36583 48497 0.4073968 0.4553248 7 96001 99217 683263 66700662455
371	1455762 61 38516 43857 0.4156272 0.4378992 2 0.0203952 0.022272 0.0426672 0.00091200616704
372	1455823 64 38516 43857 0.4156272 0.4378992 2 0.0025494 0.005014725 0.007564125 3.1646907185625e-005
373	1455887 62 38516 43857 0.4156272 0.4378992 2 0.5789148 0.6587994 1.2377142 0.7691589950994
374	1455949 63 38516 43857 0.4156272 0.4378992 2 2.320673925 2.637747 4.958420925 12.343236702184
375	1456012 78 38516 44825 0.4156272 0.4408464 3 1072 2144 4824 8331584
376	1456090 138 38516 45834 0.4156272 0.4437264 6 0 0 0 0
377	1456228 75 38895 45835 0.4173904 0.4437264 3 536 536 1608 861888
378	1456303 69 38895 45835 0.4173904 0.4437264 3 0 0 0 0
379	1456372 28 39767 39767 0.422132872045 0.422132872045 1 0 0 0 0
380	1456400 31 39767 39767 0.422132872045 0.422132872045 1 7504 7504 7504 56310016
381	1456431 31 39767 39767 0.422132872045 0.422132872045 1 7504 7504 7504 56310016
382	1456462 28 39767 39767 0.422132872045 0.422132872045 1 0 0 0 0
383	1456490 28 39768 39768 0.422132872045 0.422132872045 1 1 1 1 1
384	1456518 53 39770 48297 0.422132872045 0.4544256 2 28 44 72 2720
385	1456571 53 39772 48299 0.422132872045 0.4544256 2 64 64 128 8192
386	1456624 51 39772 48299 0.422132872045 0.4544256 2 0 0 0 0
387	1456675 53 39774 48301 0.422132872045 0.4544256 2 64 64 128 8192
388	1456728 53 39779 48306 0.422190472045 0.4544832 2 64 64 128 8192
389	1456781 53 40141 48674 0.424190472045 0.4564832 2 64 64 128 8192
390	1456834 53 40141 48674 0.424190472045 0.4564832 2 64 64 128 8192
391	1456887 62 41993 48383 0.4314112 0.4547664 2 0.0233552 0.0240144 0.0473696 0.0011221567744
392	1456949 64 41993 48383 0.4314112 0.4547664 2 0.0030018 0.005545975 0.008547775 3.9768641940625e-005
393	1457013 62 41993 48383 0.4314112 0.4547664 2 0.5793895 0.6592518 1.2386413 0.77030512851349
394	1457075 63 41993 48383 0.4314112 0.4547664 2 2.323103975 2.640009 4.963112975 12.366459598742
395	1457138 78 41993 48497 0.4314112 0.4553248 3 1072 2144 4824 8331584
vector 396 test1.server1.tcp "rcvd seq" ETV
vector 397 test1.server1.tcp "rcvd ack" ETV
vector 398 test1.server1.tcp "advertised window" ETV
vector 399 test1.server1.tcp "send window" ETV
vector 400 test1.server1.tcp tcpRcvQueueBytes ETV
vector 401 test1.server1.tcp "receive window" ETV
vector 402 test1.server1.tcp "sent ack" ETV
vector 403 test1.client5.tcp "rcvd seq" ETV
vector 404 test1.client5.tcp "rcvd ack" ETV
vector 405 test1.client5.tcp "send window" ETV
vector 406 test1.client5.tcpApp[0] sentPk:vector(packetBytes) ETV
attr interpolationmode none
attr source sentPk
attr title "packets sent, vector(packetBytes)"
vector 407 test1.client5.tcp "sent seq" ETV
vector 408 test1.client5.tcp "unacked bytes" ETV
vector 409 test1.server1.tcp "unacked bytes" ETV
vector 410 test1.server1.tcp "rcvd dupAcks" ETV
vector 411 test1.server1.tcp "sent seq" ETV
vector 412 test1.client5.tcp "measured RTT" ETV
vector 413 test1.client5.tcp "smoothed RTT" ETV
vector 414 test1.client5.tcp RTTVAR ETV
vector 415 test1.client5.tcp RTO ETV
vector 416 test1.client5.tcp cwnd ETV
vector 417 test1.client5.tcp "rcvd dupAcks" ETV
vector 418 test1.client5.tcpApp[0] rcvdPk:vector(packetBytes) ETV
attr interpolationmode none
attr source rcvdPk
attr title "packets received, vector(packetBytes)"
vector 419 test1.client5.tcpApp[0] endToEndDelay:vector ETV
attr interpolationmode none
attr source messageAge(rcvdPk)
attr title "end-to-end delay, vector"
attr unit s
vector 420 test1.server1.tcp "measured RTT" ETV
vector 421 test1.server1.tcp "smoothed RTT" ETV
vector 422 test1.server1.tcp RTTVAR ETV
vector 423 test1.server1.tcp RTO ETV
vector 424 test1.server1.tcp cwnd ETV
1	1458919 37379 51232 484204 0.4664608 1.9135248 1729 0 7 1821 3981
3	1496298 36558 50038 478672 0.4625312 1.8962352 1692 0 10 2386 7858
5	1532856 37106 53240 484194 0.4718224 1.9134992 1716 0 5 1524 2810
7	1569962 40530 52165 484157 0.4689376 1.9134736 1876 0 7 2076 4978
9	1610492 32411 59312 478837 0.4918624 1.8969744 1490 0 11 4401 25305
11	1642903 43489 49908 484118 0.4620144 1.9134064 1922 0 6 1559 2717
13	1686392 245256 49822 484368 0.4617104 1.9138768 10405 0 57 331411 12091407
17	1931648 149459 49933 484312 0.4621328 1.9137472 6585 0 23 15951 128349
21	2081107 38976 52495 484264 0.4697648 1.9136336 1722 0 1 861 861
23	2120083 38098 50166 477999 0.4629968 1.8937536 1684 0 1 842 842
[...]
203	15939535 74 511938 526681 2.0064208 2.0551568 2 0.002526575621 0.002818786695 0.005345362316 1.4329142800541e-005
204	15939609 48 511938 526681 2.0064208 2.0551568 2 1 1 2 2
205	15939657 807 511938 528715 2.0064208 2.0606528 28 346792 361264 9912784 3509927983744
206	15940464 1214 510108 528715 2.0008784 2.0606528 51 0 0 0 0
207	15941678 593 510109 526648 2.0008784 2.0550896 23 536 536 12328 6607808
208	15942271 547 510109 526648 2.0008784 2.0550896 23 0 0 0 0
209	15942818 63 515337 531752 2.015712 2.0706112 2 0.0476656 0.0548992 0.1025648 0.005285931584
210	15942881 73 515337 531752 2.015712 2.0706112 2 0.047949780482 0.048818457922 0.096768238404 0.0046824232821541
211	15942954 73 515337 531752 2.015712 2.0706112 2 0.003231432185 0.003696180602 0.006927612787 2.4103905008855e-005
212	15943027 47 515337 531752 2.015712 2.0706112 2 1 1 2 2
213	15943074 518 515337 533151 2.015712 2.0758592 18 339288 348400 6189192 2128255728960
214	15943592 1576 516196 533355 2.0187264 2.0764896 66 0 0 0 0
215	15945168 1357 516196 533355 2.0187264 2.0764896 47 340136 350320 16193288 5579790946368
216	15946525 1263 516196 533355 2.0187264 2.0764896 47 7504 7504 352688 2646570752
217	15947788 1357 516196 533355 2.0187264 2.0764896 47 332632 342816 15840600 5339408650816
219	15949145 1197 516202 533358 2.0187264 2.0764896 47 40 576 16888 9320128
220	15950342 1197 516206 533360 2.0187264 2.0764896 47 64 594 17848 9957232
221	15951539 1312 516206 533360 2.0187264 2.0764896 47 0 0.0023632 0.0285504 4.385964544e-005
222	15952851 1194 516208 533362 2.0187264 2.0764896 47 64 594 17848 9957232
223	15954045 1186 516363 533373 2.019208 2.0765472 47 64 594 17848 9957232
224	15955231 1037 516938 533281 2.021208 2.0763136 41 64 594 16934 9583916
225	15956268 1037 516938 533281 2.021208 2.0763136 41 64 594 16934 9583916
226	15957305 3558 510776 533335 2.002864 2.0764384 141 64 594 46654 25338076
227	15960863 3674 510776 533335 2.002864 2.0764384 141 0 0.000424 0.0148256 6.00316928e-006
228	15964537 3561 510778 533338 2.002864 2.0764384 141 64 594 46654 25338076
229	15968098 3540 510899 533324 2.0033456 2.0764288 140 64 594 46060 24985240
230	15971638 3462 511538 533192 2.0053456 2.0759728 137 64 594 44278 23926732
231	15975100 3462 511538 533192 2.0053456 2.0759728 137 64 594 44278 23926732
232	15978562 1665 512430 530962 2.0078272 2.0679536 70 0 0 0 0
233	15980227 1208 512430 530962 2.0078272 2.0679536 42 338597 353069 14521234 5021150247834
234	15981435 1124 512430 530962 2.0078272 2.0679536 42 7504 7504 315168 2365020672
235	15982559 1208 512430 530962 2.0078272 2.0679536 42 331093 345565 14206066 4805580588634
237	15983767 1054 512433 530966 2.0078272 2.0679536 42 40 576 9184 4689664
238	15984821 1054 512435 530968 2.0078272 2.0679536 42 64 594 10108 5054392
239	15985875 1100 512435 530968 2.0078272 2.0679536 42 0 0.001712 0.0142896 1.691925248e-005
240	15986975 1056 512437 530970 2.0078272 2.0679536 42 64 594 10108 5054392
241	15988031 1082 510004 530980 2.0004864 2.0680112 43 64 594 10702 5407228
242	15989113 1185 510021 531551 2.0005216 2.0700112 47 64 594 13078 6818572
243	15990298 1185 510021 531551 2.0005216 2.0700112 47 64 594 13078 6818572
244	15991483 1577 510028 533344 2.0005424 2.076464 66 0 0 0 0
245	15993060 1300 510028 533344 2.0005424 2.076464 45 375073 386329 17107157 6504015982397
246	15994360 1210 510028 533344 2.0005424 2.076464 45 7504 7504 337680 2533950720
247	15995570 1300 510028 533344 2.0005424 2.076464 45 367569 378825 16769477 6249805720861
249	15996870 1144 510030 533347 2.0005424 2.076464 45 40 576 14664 7996224
250	15998014 1144 510032 533349 2.0005424 2.076464 45 64 594 15600 8554080
251	15999158 1237 509948 533349 2.0002736 2.076464 46 0 0.0011584 0.0076496 4.700352e-006
252	16000395 1169 509950 533351 2.0002736 2.076464 46 64 594 16194 8906916
253	16001564 1188 509947 533368 2.000264 2.0765216 47 64 594 16788 9259752
254	16002752 1190 510167 533374 2.0010128 2.0765568 47 64 594 17848 9957232
255	16003942 1190 510167 533374 2.0010128 2.0765568 47 64 594 17848 9957232
256	16005132 1466 510122 530143 2.0008992 2.0651408 51 326954 339282 17050390 5701085396364
257	16006598 1466 510122 530143 2.0008992 2.0651408 51 325128 340136 16904200 5603942981184
258	16008064 1466 510122 530143 2.0008992 2.0651408 51 334994 346786 17445422 5968247836332
259	16009530 749 513355 530143 2.0102112 2.0651408 28 7504 7504 210112 1576680448
260	16010279 1757 510122 530143 2.0008992 2.0651408 74 0 0 0 0
261	16012036 1364 510122 530143 2.0008992 2.0651408 51 7504 7504 382704 2871810816
262	16013400 1466 510122 530143 2.0008992 2.0651408 51 327490 339282 17062718 5709298753772
263	16014866 1357 516196 533355 2.0187264 2.0764896 47 332632 342280 15830416 5332529888384
264	16016223 1357 516196 533355 2.0187264 2.0764896 47 324810 339282 15638590 5204286536636
265	16017580 752 516196 532403 2.0187264 2.0731184 28 7504 7504 210112 1576680448
267	16018332 808 516196 532403 2.0187264 2.0731184 28 331778 346250 9492392 3218578671280
268	16019140 1504 516196 532403 2.0187264 2.0731184 56 6968 7504 405216 2936165120
269	16020644 1611 511453 531320 2.0049632 2.0690704 56 365322 379794 20855744 7768099668896
270	16022255 1611 511453 531320 2.0049632 2.0690704 56 360065 375073 20606376 7583854974360
271	16023866 1611 511453 531320 2.0049632 2.0690704 56 373362 387834 21290976 8095672021024
272	16025477 747 513593 528418 2.010904 2.0598256 28 7504 7504 210112 1576680448
273	16026224 1999 511453 531320 2.0049632 2.0690704 84 0 0 0 0
274	16028223 1499 511453 531320 2.0049632 2.0690704 56 7504 7504 420224 3153360896
275	16029722 1611 511453 531320 2.0049632 2.0690704 56 365858 380330 20870752 7779290414112
276	16031333 1094 514624 533292 2.0135456 2.0763504 38 329778 342106 12784556 4301527112472
277	16032427 1094 514624 533292 2.0135456 2.0763504 38 330557 338061 12692486 4239853545542
278	16033521 1094 514624 533292 2.0135456 2.0763504 38 337818 350146 13082572 4504380583320
279	16034615 376 520252 522701 2.033824 2.0416208 14 7504 7504 105056 788340224
280	16034991 1474 514624 533292 2.0135456 2.0763504 62 0 0 0 0
281	16036465 1018 514624 533292 2.0135456 2.0763504 38 7504 7504 285152 2139780608
282	16037483 1094 514624 533292 2.0135456 2.0763504 38 330314 342642 12797420 4310177123352
283	16038577 1498 513355 530143 2.0102112 2.0651408 56 6968 7504 405216 2936165120
284	16040075 1211 510122 530143 2.0008992 2.0651408 51 0 0 0 0
285	16041286 805 513355 530143 2.0102112 2.0651408 28 332632 347104 9516304 3234812097664
286	16042091 1300 510028 533344 2.0005424 2.076464 45 367569 378289 16758221 6241404309997
287	16043391 1300 510028 533344 2.0005424 2.076464 45 363714 376042 16668898 6175100732180
288	16044691 645 510028 530238 2.0005424 2.0654976 24 7504 7504 180096 1351440384
290	16045336 693 510028 530238 2.0005424 2.0654976 24 370682 383010 9044304 3408640175584
291	16046029 1290 510028 530238 2.0005424 2.0654976 48 6968 7504 347328 2516712960
292	16047319 1208 512430 530962 2.0078272 2.0679536 42 330557 345029 14191058 4795433349658
293	16048527 1208 512430 530962 2.0078272 2.0679536 42 329778 337282 14012012 4675138302408
294	16049735 373 522922 524332 2.0424896 2.0471632 14 7504 7504 105056 788340224
296	16050108 401 522922 524332 2.0424896 2.0471632 14 337282 344250 4770724 1625765894424
297	16050509 746 522922 524332 2.0424896 2.0471632 28 6968 7504 202608 1468082560
298	16051255 64 516196 530899 2.0187264 2.0677312 2 0.0488032 0.0490048 0.097808 0.00478322275328
299	16051319 73 516196 530899 2.0187264 2.0677312 2 0.04821385039 0.048312719091 0.096526569481 0.0046586941953952
300	16051392 74 516196 530899 2.0187264 2.0677312 2 0.006338219047 0.007130686109 0.013468905156 9.1019705072839e-005
301	16051466 48 516196 530899 2.0187264 2.0677312 2 1 1 2 2
302	16051514 808 516196 532403 2.0187264 2.0731184 28 256744 271216 7391440 1951717220992
303	16052322 1122 516196 533355 2.0187264 2.0764896 47 0 0 0 0
304	16053444 492 518086 533356 2.0255872 2.0764896 19 536 536 10184 5458624
305	16053936 454 518086 533356 2.0255872 2.0764896 19 0 0 0 0
306	16054390 1494 513593 528418 2.010904 2.0598256 56 6968 7504 405216 2936165120
307	16055884 1331 511453 531320 2.0049632 2.0690704 56 0 0 0 0
308	16057215 803 513593 528418 2.010904 2.0598256 28 367569 382041 10494540 3933930954492
309	16058018 752 520252 522701 2.033824 2.0416208 28 6968 7504 202608 1468082560
310	16058770 904 514624 533292 2.0135456 2.0763504 38 0 0 0 0
311	16059674 404 520252 522701 2.033824 2.0416208 14 338061 345029 4781630 1633207178190
312	16060078 31 522892 522892 2.042376 2.042376 1 0.0438448 0.0438448 0.0438448 0.00192236648704
313	16060109 36 522892 522892 2.042376 2.042376 1 0.043507221429 0.043507221429 0.043507221429 0.001892878316472
314	16060145 36 522892 522892 2.042376 2.042376 1 0.003885610391 0.003885610391 0.003885610391 1.5097968110647e-005
315	16060181 23 522892 522892 2.042376 2.042376 1 1 1 1 1
316	16060204 693 510028 530238 2.0005424 2.0654976 24 288904 301232 7081632 2089893381376
317	16060897 1075 510028 533344 2.0005424 2.076464 45 0 0 0 0
318	16061972 544 517836 533345 2.0246464 2.076464 21 536 536 11256 6033216
319	16062516 502 517836 533345 2.0246464 2.076464 21 0 0 0 0
320	16063018 63 513355 527666 2.0102112 2.057944 2 0.0477328 0.0495632 0.097296 0.00473493099008
321	16063081 73 513355 527666 2.0102112 2.057944 2 0.048155345754 0.048215709433 0.096371055187 0.0046436919608148
322	16063154 73 513355 527666 2.0102112 2.057944 2 0.007386068091 0.008372233614 0.015758301705 0.00012464829753228
323	16063227 47 513355 527666 2.0102112 2.057944 2 1 1 2 2
324	16063274 805 513355 530143 2.0102112 2.0651408 28 249240 263712 7181328 1842363169920
325	16064079 1875 510042 529745 2.0006096 2.063864 79 0 0 0 0
326	16065954 1466 510042 529745 2.0006096 2.063864 51 366681 381689 19023403 7096842668643
327	16067420 1364 510042 529745 2.0006096 2.063864 51 7504 7504 382704 2871810816
328	16068784 1466 510042 529745 2.0006096 2.063864 51 359177 374185 18640699 6814211247235
330	16070250 1285 510044 529748 2.0006096 2.063864 51 40 576 14368 7675648
331	16071535 1285 510046 529750 2.0006096 2.063864 51 64 594 15454 8229916
332	16072820 1417 509956 529750 2.0003408 2.063864 52 0 0.0014944 0.0142064 1.194670848e-005
333	16074237 1311 509958 529752 2.0003408 2.063864 52 64 594 16048 8582752
334	16075548 1333 509955 529760 2.0003312 2.0639216 53 64 594 16642 8935588
335	16076881 1383 510182 530370 2.00108 2.0659216 55 64 594 17830 9641260
336	16078264 1383 510182 530370 2.00108 2.0659216 55 64 594 17830 9641260
337	16079647 32 522922 522922 2.0424896 2.0424896 1 0.0488704 0.0488704 0.0488704 0.00238831599616
338	16079679 37 522922 522922 2.0424896 2.0424896 1 0.048181853986 0.048181853986 0.048181853986 0.0023214910535282
339	16079716 37 522922 522922 2.0424896 2.0424896 1 0.007167652903 0.007167652903 0.007167652903 5.1375248137884e-005
340	16079753 24 522922 522922 2.0424896 2.0424896 1 1 1 1 1
341	16079777 401 522922 524332 2.0424896 2.0471632 14 256744 263712 3643192 948125927616
342	16080178 998 512430 530962 2.0078272 2.0679536 42 0 0 0 0
343	16081176 63 513593 524945 2.010904 2.0495472 2 0.0386432 0.0464352 0.0850784 0.00364952470528
344	16081239 73 513593 524945 2.010904 2.0495472 2 0.043429519381 0.044113279293 0.087542798674 0.0038321045636469
345	16081312 73 513593 524945 2.010904 2.0495472 2 0.006249047805 0.006360329021 0.012609376826 7.950438372455e-005
346	16081385 47 513593 524945 2.010904 2.0495472 2 1 1 2 2
347	16081432 803 513593 528418 2.010904 2.0598256 28 279256 293728 8021776 2298699539584
348	16082235 723 512431 530964 2.0078272 2.0679536 28 536 536 15008 8044288
349	16082958 667 512431 530964 2.0078272 2.0679536 28 0 0 0 0
350	16083625 31 520252 520252 2.033824 2.033824 1 0.0477328 0.0477328 0.0477328 0.00227842019584
351	16083656 36 520252 520252 2.033824 2.033824 1 0.048475547454 0.048475547454 0.048475547454 0.002349878700965
352	16083692 36 520252 520252 2.033824 2.033824 1 0.008744138146 0.008744138146 0.008744138146 7.6459951916332e-005
353	16083728 23 520252 520252 2.033824 2.033824 1 1 1 1 1
354	16083751 404 520252 522701 2.033824 2.0416208 14 249240 256208 3538136 894237242304
355	16084155 1321 510657 533004 2.00244 2.0753008 46 360079 375087 16901314 6210629502158
356	16085476 1321 510657 533004 2.00244 2.0753008 46 358641 367753 16699558 6063039312734
357	16086797 1321 510657 533004 2.00244 2.0753008 46 367583 382591 17261506 6478133294798
358	16088118 478 510657 533004 2.00244 2.0753008 18 7504 7504 135072 1013580288
359	16088596 1758 510657 533004 2.00244 2.0753008 74 0 0 0 0
360	16090354 1229 510657 533004 2.00244 2.0753008 46 7504 7504 345184 2590260736
361	16091583 1321 510657 533004 2.00244 2.0753008 46 360079 375087 16916322 6221662873486
362	16092904 1466 510042 529745 2.0006096 2.063864 51 359177 373649 18625691 6803204950339
363	16094370 1466 510042 529745 2.0006096 2.063864 51 355791 367583 18506069 6715930994659
364	16095836 616 510042 524478 2.0006096 2.0477632 23 7504 7504 172592 1295130368
366	16096452 662 510042 524478 2.0006096 2.0477632 23 362759 374551 8479065 3126140451127
367	16097114 1232 510042 524478 2.0006096 2.0477632 46 6968 7504 332856 2411849920
368	16098346 956 510657 533004 2.00244 2.0753008 36 6968 7504 260496 1887534720
369	16099302 1091 510657 533004 2.00244 2.0753008 46 0 0 0 0
370	16100393 514 510657 533004 2.00244 2.0753008 18 365609 374721 6662970 2466537484962
371	16100907 31 522577 522577 2.041192 2.041192 1 0.0437776 0.0437776 0.0437776 0.00191647826176
372	16100938 36 522577 522577 2.041192 2.041192 1 0.043391827574 0.043391827574 0.043391827574 0.0018828507002117
373	16100974 36 522577 522577 2.041192 2.041192 1 0.005182648932 0.005182648932 0.005182648932 2.6859849952361e-005
374	16101010 23 522577 522577 2.041192 2.041192 1 1 1 1 1
375	16101033 662 510042 524478 2.0006096 2.0477632 23 266928 278720 6274952 1712248248000
376	16101695 1211 510042 529745 2.0006096 2.063864 51 0 0 0 0
377	16102906 720 511195 529746 2.0042288 2.063864 28 536 536 15008 8044288
378	16103626 664 511195 529746 2.0042288 2.063864 28 0 0 0 0
379	16104290 1473 516723 533142 2.020432 2.0758224 62 0 0 0 0
380	16105763 1293 516723 533142 2.020432 2.0758224 45 335585 344697 15288389 5194631058589
381	16107056 1203 516723 533142 2.020432 2.0758224 45 7504 7504 337680 2533950720
382	16108259 1293 516723 533142 2.020432 2.0758224 45 328081 337193 14950709 4967716867197
384	16109552 1141 516725 533145 2.020432 2.0758224 45 40 576 16808 9316928
385	16110693 1141 516727 533147 2.020432 2.0758224 45 64 594 17720 9949040
386	16111834 1316 516727 533252 2.020432 2.0761792 45 0 0.0037744 0.064024 0.0001717254272
387	16113150 1141 516729 533254 2.020432 2.0761792 45 64 594 17720 9949040
388	16114291 1146 516862 533260 2.0209136 2.0762368 45 64 594 17720 9949040
389	16115437 994 517396 533379 2.0229136 2.0765616 39 64 594 15746 8878244
390	16116431 994 517396 533379 2.0229136 2.0765616 39 64 594 15746 8878244
391	16117425 64 519666 532854 2.0316112 2.0747424 2 0.0431312 0.0466368 0.089768 0.00403529152768
392	16117489 74 519666 532854 2.0316112 2.0747424 2 0.043339575761 0.043369343727 0.086708919488 0.0037592188024541
393	16117563 74 519666 532854 2.0316112 2.0747424 2 0.006498833613 0.007393217882 0.013892051495 9.6894508980183e-005
394	16117637 48 519666 532854 2.0316112 2.0747424 2 1 1 2 2
395	16117685 514 510657 533004 2.00244 2.0753008 18 263176 272288 4819176 1290386823744
396	16118199 1381 509978 529285 2.000408 2.0624832 48 320470 331190 15679504 5122435566464
397	16119580 1381 509978 529285 2.000408 2.0624832 48 320577 335585 15710368 5142828405648
398	16120961 1381 509978 529285 2.000408 2.0624832 48 328510 338694 16050416 5367603124224
399	16122342 748 511760 529285 2.0060128 2.0624832 28 7504 7504 210112 1576680448
400	16123090 1618 509978 529285 2.000408 2.0624832 68 0 0 0 0
401	16124708 1285 509978 529285 2.000408 2.0624832 48 7504 7504 360192 2702880768
402	16125993 1381 509978 529285 2.000408 2.0624832 48 321006 331190 15690224 5129421361664
403	16127374 1293 516723 533142 2.020432 2.0758224 45 328081 336657 14941597 4961654890509
404	16128667 1293 516723 533142 2.020432 2.0758224 45 316718 331190 14595886 4734895545684
405	16129960 747 516723 532100 2.020432 2.0720272 28 7504 7504 210112 1576680448
407	16130707 803 516723 532100 2.020432 2.0720272 28 323686 338158 9265816 3066787252144
408	16131510 1494 516723 532100 2.020432 2.0720272 56 6968 7504 405216 2936165120
409	16133004 1496 511760 529285 2.0060128 2.0624832 56 6968 7504 405216 2936165120
410	16134500 1141 509978 529285 2.000408 2.0624832 48 0 0 0 0
411	16135641 804 511760 529285 2.0060128 2.0624832 28 328081 342553 9388876 3148774623484
412	16136445 61 516723 531350 2.020432 2.069168 2 0.048736 0.0487408 0.0974768 0.00475086328064
413	16136506 72 516723 531350 2.020432 2.069168 2 0.047993952216 0.048086708189 0.096080660405 0.0046157509537657
414	16136578 71 516723 531350 2.020432 2.069168 2 0.012204661933 0.01384217824 0.026046840173 0.00034055967132675
415	16136649 46 516723 531350 2.020432 2.069168 2 1 1 2 2
416	16136695 803 516723 532100 2.020432 2.0720272 28 211720 226192 6130768 1342893328000
417	16137498 1068 516723 533142 2.020432 2.0758224 45 0 0 0 0
418	16138566 439 518065 533143 2.0255664 2.0758224 17 536 536 9112 4884032
419	16139005 405 518065 533143 2.0255664 2.0758224 17 0 0 0 0
420	16139410 63 511760 526667 2.0060128 2.055152 2 0.0481568 0.0491392 0.097296 0.00473373836288
421	16139473 73 511760 526667 2.0060128 2.055152 2 0.047810302918 0.047976415053 0.095786717971 0.0045875614664486
422	16139546 73 511760 526667 2.0060128 2.055152 2 0.013879053051 0.015671932475 0.029550985526 0.00043823758109343
423	16139619 47 511760 526667 2.0060128 2.055152 2 1 1 2 2
424	16139666 804 511760 529285 2.0060128 2.0624832 28 204216 218688 5920656 1252459442304
425	16140470 46 529869 529875 2.064344 2.064344 2 0 0 0 0
426	16140516 84 529869 529875 2.064344 2.064344 3 521533 521533 1564599 815990010267
427	16140600 52 529869 529875 2.064344 2.064344 2 7504 7504 15008 112620032
428	16140652 56 529869 529875 2.064344 2.064344 2 514029 514029 1028058 528451625682
429	16140708 24 518028 518028 2.0254224 2.0254224 1 1 1 1 1
430	16140732 50 518030 526987 2.0254224 2.0561136 2 28 44 72 2720
431	16140782 50 518032 526989 2.0254224 2.0561136 2 64 64 128 8192
432	16140832 48 518032 526989 2.0254224 2.0561136 2 0 0 0 0
433	16140880 50 518034 526991 2.0254224 2.0561136 2 64 64 128 8192
434	16140930 48 518039 527019 2.02548 2.0561712 2 64 64 128 8192
435	16140978 48 518591 527768 2.02748 2.0581712 2 64 64 128 8192
436	16141026 48 518591 527768 2.02748 2.0581712 2 64 64 128 8192
437	16141074 29 526985 526985 2.0561136 2.0561136 1 500000 500000 500000 250000000000
438	16141103 24 526985 526985 2.0561136 2.0561136 1 0 0 0 0
439	16141127 58 526985 526985 2.0561136 2.0561136 2 507505 507505 1015010 515122650050
440	16141185 27 526985 526985 2.0561136 2.0561136 1 7504 7504 7504 56310016
441	16141212 24 526985 526985 2.0561136 2.0561136 1 0 0 0 0
442	16141236 27 526985 526985 2.0561136 2.0561136 1 7504 7504 7504 56310016
443	16141263 29 526985 526985 2.0561136 2.0561136 1 500001 500001 500001 250001000001
444	16141292 28 529869 529869 2.064344 2.064344 1 514028 514028 514028 264224784784
445	16141320 28 529869 529869 2.064344 2.064344 1 500001 500001 500001 250001000001
446	16141348 26 529869 529869 2.064344 2.064344 1 7504 7504 7504 56310016
447	16141374 29 529873 529873 2.064344 2.064344 1 1048576 1048576 1048576 1099511627776
448	16141403 28 529875 529875 2.064344 2.064344 1 500001 500001 500001 250001000001
449	16141431 25 529875 529875 2.064344 2.064344 1 536 536 536 287296

