file 16543118 1510041085                                        
version 2
run OurFlow_Path_TCP_Test-0-20171107-11:03:24-9496
attr configname OurFlow_Path_TCP_Test
attr datetime 20171107-11:03:24
attr experiment OurFlow_Path_TCP_Test
attr inifile test1.ini
attr iterationvars ""
attr iterationvarsf ""
attr measurement ""
attr network test1
attr processid 9496
attr repetition 0
attr replication #0
attr resultdir results
attr runnumber 0
attr seedset 0
param **.switch*.relayUnitType "\"MACRelayUnitAPB\""
param *.switch*.relayUnit.isOurFlowPath true
param *.switch*.relayUnit.learningTableAgingTime 120s
param *.switch*.relayUnit.blockingTableAgingTime 120s
param *.client*.networkLayer.arp.cacheTimeout 120s
param *.client1.numTcpApps 2
param **.client*.numTcpApps 1
param **.client*.tcpApp[*].typename "\"TCPSessionApp\""
param **.client*.tcpApp[*].active true
param **.client*.tcpApp[*].localAddress "\"\""
param **.client*.tcpApp[*].localPort -1
param **.client*.tcpApp[1].connectAddress "\"server2\""
param **.client*.tcpApp[*].connectAddress "\"server1\""
param **.client*.tcpApp[*].connectPort 1000
param **.client1.tcpApp[0].tOpen 0s
param **.client1.tcpApp[1].tOpen 2s
param **.client*.tcpApp[*].tOpen uniform(0s,0.5s)
param **.client*.tcpApp[*].tSend 0s
param **.client*.tcpApp[*].sendBytes 1MiB
param **.client*.tcpApp[*].sendScript "\"\""
param **.client*.tcpApp[*].tClose 2s
param **.server*.numTcpApps 1
param **.server*.tcpApp[*].typename "\"TCPEchoApp\""
param **.server*.tcpApp[0].localAddress "\"\""
param **.server*.tcpApp[0].localPort 1000
param **.server*.tcpApp[0].echoFactor 2.0
param **.server*.tcpApp[0].echoDelay 0
param *.switch*.macType "\"EtherMACFullDuplex\""
param **.eth[*].mac.duplexMode true
param **.eth[*].queueType "\"DropTailQueue\""

vector 0 test1.client1.eth[0].queue.pauseQueue queueLength:vector ETV
attr interpolationmode sample-hold
attr title "queue length, vector"
vector 1 test1.client1.eth[0].queue.dataQueue queueLength:vector ETV
attr interpolationmode sample-hold
attr title "queue length, vector"
vector 2 test1.client2.eth[0].queue.pauseQueue queueLength:vector ETV
attr interpolationmode sample-hold
attr title "queue length, vector"
vector 3 test1.client2.eth[0].queue.dataQueue queueLength:vector ETV
attr interpolationmode sample-hold
attr title "queue length, vector"
vector 4 test1.client3.eth[0].queue.pauseQueue queueLength:vector ETV
attr interpolationmode sample-hold
attr title "queue length, vector"
vector 5 test1.client3.eth[0].queue.dataQueue queueLength:vector ETV
attr interpolationmode sample-hold
attr title "queue length, vector"
vector 6 test1.client4.eth[0].queue.pauseQueue queueLength:vector ETV
attr interpolationmode sample-hold
attr title "queue length, vector"
vector 7 test1.client4.eth[0].queue.dataQueue queueLength:vector ETV
attr interpolationmode sample-hold
attr title "queue length, vector"
vector 8 test1.client5.eth[0].queue.pauseQueue queueLength:vector ETV
attr interpolationmode sample-hold
attr title "queue length, vector"
vector 9 test1.client5.eth[0].queue.dataQueue queueLength:vector ETV
attr interpolationmode sample-hold
attr title "queue length, vector"
vector 10 test1.client6.eth[0].queue.pauseQueue queueLength:vector ETV
attr interpolationmode sample-hold
attr title "queue length, vector"
vector 11 test1.client6.eth[0].queue.dataQueue queueLength:vector ETV
attr interpolationmode sample-hold
attr title "queue length, vector"
vector 12 test1.server1.eth[0].queue.pauseQueue queueLength:vector ETV
attr interpolationmode sample-hold
attr title "queue length, vector"
vector 13 test1.server1.eth[0].queue.dataQueue queueLength:vector ETV
attr interpolationmode sample-hold
attr title "queue length, vector"
vector 14 test1.server2.eth[0].queue.pauseQueue queueLength:vector ETV
attr interpolationmode sample-hold
attr title "queue length, vector"
vector 15 test1.server2.eth[0].queue.dataQueue queueLength:vector ETV
attr interpolationmode sample-hold
attr title "queue length, vector"
vector 16 test1.switchA.eth[0].queue.pauseQueue queueLength:vector ETV
attr interpolationmode sample-hold
attr title "queue length, vector"
vector 17 test1.switchA.eth[0].queue.dataQueue queueLength:vector ETV
attr interpolationmode sample-hold
attr title "queue length, vector"
vector 18 test1.switchA.eth[1].queue.pauseQueue queueLength:vector ETV
attr interpolationmode sample-hold
attr title "queue length, vector"
vector 19 test1.switchA.eth[1].queue.dataQueue queueLength:vector ETV
attr interpolationmode sample-hold
attr title "queue length, vector"
vector 20 test1.switchA.eth[2].queue.pauseQueue queueLength:vector ETV
attr interpolationmode sample-hold
attr title "queue length, vector"
vector 21 test1.switchA.eth[2].queue.dataQueue queueLength:vector ETV
attr interpolationmode sample-hold
attr title "queue length, vector"
vector 22 test1.switchA.eth[3].queue.pauseQueue queueLength:vector ETV
attr interpolationmode sample-hold
attr title "queue length, vector"
vector 23 test1.switchA.eth[3].queue.dataQueue queueLength:vector ETV
attr interpolationmode sample-hold
attr title "queue length, vector"
vector 24 test1.switchA.eth[4].queue.pauseQueue queueLength:vector ETV
attr interpolationmode sample-hold
attr title "queue length, vector"
vector 25 test1.switchA.eth[4].queue.dataQueue queueLength:vector ETV
attr interpolationmode sample-hold
attr title "queue length, vector"
vector 26 test1.switchB.eth[0].queue.pauseQueue queueLength:vector ETV
attr interpolationmode sample-hold
attr title "queue length, vector"
vector 27 test1.switchB.eth[0].queue.dataQueue queueLength:vector ETV
attr interpolationmode sample-hold
attr title "queue length, vector"
vector 28 test1.switchB.eth[1].queue.pauseQueue queueLength:vector ETV
attr interpolationmode sample-hold
attr title "queue length, vector"
vector 29 test1.switchB.eth[1].queue.dataQueue queueLength:vector ETV
attr interpolationmode sample-hold
attr title "queue length, vector"
vector 30 test1.switchB.eth[2].queue.pauseQueue queueLength:vector ETV
attr interpolationmode sample-hold
attr title "queue length, vector"
vector 31 test1.switchB.eth[2].queue.dataQueue queueLength:vector ETV
attr interpolationmode sample-hold
attr title "queue length, vector"
vector 32 test1.switchB.eth[3].queue.pauseQueue queueLength:vector ETV
attr interpolationmode sample-hold
attr title "queue length, vector"
vector 33 test1.switchB.eth[3].queue.dataQueue queueLength:vector ETV
attr interpolationmode sample-hold
attr title "queue length, vector"
vector 34 test1.switchB.eth[4].queue.pauseQueue queueLength:vector ETV
attr interpolationmode sample-hold
attr title "queue length, vector"
vector 35 test1.switchB.eth[4].queue.dataQueue queueLength:vector ETV
attr interpolationmode sample-hold
attr title "queue length, vector"
vector 36 test1.switchC.eth[0].queue.pauseQueue queueLength:vector ETV
attr interpolationmode sample-hold
attr title "queue length, vector"
vector 37 test1.switchC.eth[0].queue.dataQueue queueLength:vector ETV
attr interpolationmode sample-hold
attr title "queue length, vector"
vector 38 test1.switchC.eth[1].queue.pauseQueue queueLength:vector ETV
attr interpolationmode sample-hold
attr title "queue length, vector"
vector 39 test1.switchC.eth[1].queue.dataQueue queueLength:vector ETV
attr interpolationmode sample-hold
attr title "queue length, vector"
vector 40 test1.switchD.eth[0].queue.pauseQueue queueLength:vector ETV
attr interpolationmode sample-hold
attr title "queue length, vector"
vector 41 test1.switchD.eth[0].queue.dataQueue queueLength:vector ETV
attr interpolationmode sample-hold
attr title "queue length, vector"
vector 42 test1.switchD.eth[1].queue.pauseQueue queueLength:vector ETV
attr interpolationmode sample-hold
attr title "queue length, vector"
vector 43 test1.switchD.eth[1].queue.dataQueue queueLength:vector ETV
attr interpolationmode sample-hold
attr title "queue length, vector"
vector 44 test1.switchD.eth[2].queue.pauseQueue queueLength:vector ETV
attr interpolationmode sample-hold
attr title "queue length, vector"
vector 45 test1.switchD.eth[2].queue.dataQueue queueLength:vector ETV
attr interpolationmode sample-hold
attr title "queue length, vector"
vector 46 test1.switchD.eth[3].queue.pauseQueue queueLength:vector ETV
attr interpolationmode sample-hold
attr title "queue length, vector"
vector 47 test1.switchD.eth[3].queue.dataQueue queueLength:vector ETV
attr interpolationmode sample-hold
attr title "queue length, vector"
vector 48 test1.switchE.eth[0].queue.pauseQueue queueLength:vector ETV
attr interpolationmode sample-hold
attr title "queue length, vector"
vector 49 test1.switchE.eth[0].queue.dataQueue queueLength:vector ETV
attr interpolationmode sample-hold
attr title "queue length, vector"
vector 50 test1.switchE.eth[1].queue.pauseQueue queueLength:vector ETV
attr interpolationmode sample-hold
attr title "queue length, vector"
vector 51 test1.switchE.eth[1].queue.dataQueue queueLength:vector ETV
attr interpolationmode sample-hold
attr title "queue length, vector"
vector 52 test1.client1.tcp tcpRcvQueueBytes ETV
vector 53 test1.client1.tcp "advertised window" ETV
vector 54 test1.client1.tcp "receive window" ETV
vector 55 test1.client1.tcp "sent ack" ETV
vector 56 test1.client1.networkLayer.arp sentReq:vector ETV
attr title "ARP request sent, vector"
vector 57 test1.client1.eth[0].encap encapPk:vector(packetBytes) ETV
attr interpolationmode none
attr source encapPk
attr title "packets encapsulated, vector(packetBytes)"
vector 58 test1.client1.eth[0].queue.dataQueue rcvdPk:vector(packetBytes) ETV
attr interpolationmode none
attr title "received packets, vector(packetBytes)"
vector 59 test1.client1.eth[0].queue.dataQueue queueingTime:vector ETV
attr interpolationmode none
attr title "queueing time, vector"
vector 60 test1.client1.eth[0].mac rxPkFromHL:vector(packetBytes) ETV
attr interpolationmode none
attr source rxPkFromHL
attr title "packet bytes from higher layer, vector(packetBytes)"
vector 61 test1.client1.eth[0].mac txPk:vector(packetBytes) ETV
attr interpolationmode none
attr source txPk
attr title "packets transmitted, vector(packetBytes)"
vector 62 test1.switchA.eth[4].mac rxPkOk:vector(packetBytes) ETV
attr interpolationmode none
attr source rxPkOk
attr title "packets received OK, vector(packetBytes)"
vector 63 test1.switchA.eth[4].mac passedUpPk:vector(packetBytes) ETV
attr interpolationmode none
attr source packetSentToUpper
attr title "packets passed to higher layer, vector(packetBytes)"
vector 64 test1.switchA.eth[0].queue.dataQueue rcvdPk:vector(packetBytes) ETV
attr interpolationmode none
attr title "received packets, vector(packetBytes)"
vector 65 test1.switchA.eth[0].queue.dataQueue queueingTime:vector ETV
attr interpolationmode none
attr title "queueing time, vector"
vector 66 test1.switchA.eth[1].queue.dataQueue rcvdPk:vector(packetBytes) ETV
attr interpolationmode none
attr title "received packets, vector(packetBytes)"
vector 67 test1.switchA.eth[1].queue.dataQueue queueingTime:vector ETV
attr interpolationmode none
attr title "queueing time, vector"
vector 68 test1.switchA.eth[2].queue.dataQueue rcvdPk:vector(packetBytes) ETV
attr interpolationmode none
attr title "received packets, vector(packetBytes)"
vector 69 test1.switchA.eth[2].queue.dataQueue queueingTime:vector ETV
attr interpolationmode none
attr title "queueing time, vector"
vector 70 test1.switchA.eth[3].queue.dataQueue rcvdPk:vector(packetBytes) ETV
attr interpolationmode none
attr title "received packets, vector(packetBytes)"
vector 71 test1.switchA.eth[3].queue.dataQueue queueingTime:vector ETV
attr interpolationmode none
attr title "queueing time, vector"
vector 72 test1.switchA.eth[0].mac rxPkFromHL:vector(packetBytes) ETV
attr interpolationmode none
attr source rxPkFromHL
attr title "packet bytes from higher layer, vector(packetBytes)"
vector 73 test1.switchA.eth[1].mac rxPkFromHL:vector(packetBytes) ETV
attr interpolationmode none
attr source rxPkFromHL
attr title "packet bytes from higher layer, vector(packetBytes)"
vector 74 test1.switchA.eth[2].mac rxPkFromHL:vector(packetBytes) ETV
attr interpolationmode none
attr source rxPkFromHL
attr title "packet bytes from higher layer, vector(packetBytes)"
vector 75 test1.switchA.eth[3].mac rxPkFromHL:vector(packetBytes) ETV
attr interpolationmode none
attr source rxPkFromHL
attr title "packet bytes from higher layer, vector(packetBytes)"
vector 76 test1.switchA.eth[0].mac txPk:vector(packetBytes) ETV
attr interpolationmode none
attr source txPk
attr title "packets transmitted, vector(packetBytes)"
vector 77 test1.switchA.eth[1].mac txPk:vector(packetBytes) ETV
attr interpolationmode none
attr source txPk
attr title "packets transmitted, vector(packetBytes)"
vector 78 test1.switchA.eth[2].mac txPk:vector(packetBytes) ETV
attr interpolationmode none
attr source txPk
attr title "packets transmitted, vector(packetBytes)"
vector 79 test1.switchA.eth[3].mac txPk:vector(packetBytes) ETV
attr interpolationmode none
attr source txPk
attr title "packets transmitted, vector(packetBytes)"
vector 80 test1.switchB.eth[0].mac rxPkOk:vector(packetBytes) ETV
attr interpolationmode none
attr source rxPkOk
attr title "packets received OK, vector(packetBytes)"
vector 81 test1.switchB.eth[0].mac passedUpPk:vector(packetBytes) ETV
attr interpolationmode none
attr source packetSentToUpper
attr title "packets passed to higher layer, vector(packetBytes)"
vector 82 test1.switchC.eth[1].mac rxPkOk:vector(packetBytes) ETV
attr interpolationmode none
attr source rxPkOk
attr title "packets received OK, vector(packetBytes)"
vector 83 test1.switchC.eth[1].mac passedUpPk:vector(packetBytes) ETV
attr interpolationmode none
attr source packetSentToUpper
attr title "packets passed to higher layer, vector(packetBytes)"
vector 84 test1.client3.eth[0].mac rxPkOk:vector(packetBytes) ETV
attr interpolationmode none
attr source rxPkOk
attr title "packets received OK, vector(packetBytes)"
vector 85 test1.client3.eth[0].mac passedUpPk:vector(packetBytes) ETV
attr interpolationmode none
attr source packetSentToUpper
attr title "packets passed to higher layer, vector(packetBytes)"
vector 86 test1.client2.eth[0].mac rxPkOk:vector(packetBytes) ETV
attr interpolationmode none
attr source rxPkOk
attr title "packets received OK, vector(packetBytes)"
vector 87 test1.client2.eth[0].mac passedUpPk:vector(packetBytes) ETV
attr interpolationmode none
attr source packetSentToUpper
attr title "packets passed to higher layer, vector(packetBytes)"
vector 88 test1.client3.eth[0].encap decapPk:vector(packetBytes) ETV
attr interpolationmode none
attr source decapPk
attr title "packets decapsulated, vector(packetBytes)"
vector 89 test1.client2.eth[0].encap decapPk:vector(packetBytes) ETV
attr interpolationmode none
attr source decapPk
attr title "packets decapsulated, vector(packetBytes)"
vector 90 test1.switchB.eth[1].queue.dataQueue rcvdPk:vector(packetBytes) ETV
attr interpolationmode none
attr title "received packets, vector(packetBytes)"
vector 91 test1.switchB.eth[1].queue.dataQueue queueingTime:vector ETV
attr interpolationmode none
attr title "queueing time, vector"
vector 92 test1.switchB.eth[2].queue.dataQueue rcvdPk:vector(packetBytes) ETV
attr interpolationmode none
attr title "received packets, vector(packetBytes)"
vector 93 test1.switchB.eth[2].queue.dataQueue queueingTime:vector ETV
attr interpolationmode none
attr title "queueing time, vector"
vector 94 test1.switchB.eth[3].queue.dataQueue rcvdPk:vector(packetBytes) ETV
attr interpolationmode none
attr title "received packets, vector(packetBytes)"
vector 95 test1.switchB.eth[3].queue.dataQueue queueingTime:vector ETV
attr interpolationmode none
attr title "queueing time, vector"
vector 96 test1.switchB.eth[4].queue.dataQueue rcvdPk:vector(packetBytes) ETV
attr interpolationmode none
attr title "received packets, vector(packetBytes)"
vector 97 test1.switchB.eth[4].queue.dataQueue queueingTime:vector ETV
attr interpolationmode none
attr title "queueing time, vector"
vector 98 test1.switchC.eth[0].queue.dataQueue rcvdPk:vector(packetBytes) ETV
attr interpolationmode none
attr title "received packets, vector(packetBytes)"
vector 99 test1.switchC.eth[0].queue.dataQueue queueingTime:vector ETV
attr interpolationmode none
attr title "queueing time, vector"
vector 100 test1.switchB.eth[1].mac rxPkFromHL:vector(packetBytes) ETV
attr interpolationmode none
attr source rxPkFromHL
attr title "packet bytes from higher layer, vector(packetBytes)"
vector 101 test1.switchB.eth[2].mac rxPkFromHL:vector(packetBytes) ETV
attr interpolationmode none
attr source rxPkFromHL
attr title "packet bytes from higher layer, vector(packetBytes)"
vector 102 test1.switchB.eth[3].mac rxPkFromHL:vector(packetBytes) ETV
attr interpolationmode none
attr source rxPkFromHL
attr title "packet bytes from higher layer, vector(packetBytes)"
vector 103 test1.switchB.eth[4].mac rxPkFromHL:vector(packetBytes) ETV
attr interpolationmode none
attr source rxPkFromHL
attr title "packet bytes from higher layer, vector(packetBytes)"
vector 104 test1.switchC.eth[0].mac rxPkFromHL:vector(packetBytes) ETV
attr interpolationmode none
attr source rxPkFromHL
attr title "packet bytes from higher layer, vector(packetBytes)"
vector 105 test1.switchB.eth[1].mac txPk:vector(packetBytes) ETV
attr interpolationmode none
attr source txPk
attr title "packets transmitted, vector(packetBytes)"
vector 106 test1.switchB.eth[2].mac txPk:vector(packetBytes) ETV
attr interpolationmode none
attr source txPk
attr title "packets transmitted, vector(packetBytes)"
vector 107 test1.switchB.eth[3].mac txPk:vector(packetBytes) ETV
attr interpolationmode none
attr source txPk
attr title "packets transmitted, vector(packetBytes)"
vector 108 test1.switchB.eth[4].mac txPk:vector(packetBytes) ETV
attr interpolationmode none
attr source txPk
attr title "packets transmitted, vector(packetBytes)"
vector 109 test1.switchC.eth[0].mac txPk:vector(packetBytes) ETV
attr interpolationmode none
attr source txPk
attr title "packets transmitted, vector(packetBytes)"
vector 110 test1.switchD.eth[1].mac rxPkOk:vector(packetBytes) ETV
attr interpolationmode none
attr source rxPkOk
attr title "packets received OK, vector(packetBytes)"
vector 111 test1.switchD.eth[1].mac passedUpPk:vector(packetBytes) ETV
attr interpolationmode none
attr source packetSentToUpper
attr title "packets passed to higher layer, vector(packetBytes)"
vector 112 test1.client4.eth[0].mac rxPkOk:vector(packetBytes) ETV
attr interpolationmode none
attr source rxPkOk
attr title "packets received OK, vector(packetBytes)"
vector 113 test1.client4.eth[0].mac passedUpPk:vector(packetBytes) ETV
attr interpolationmode none
attr source packetSentToUpper
attr title "packets passed to higher layer, vector(packetBytes)"
vector 114 test1.client5.eth[0].mac rxPkOk:vector(packetBytes) ETV
attr interpolationmode none
attr source rxPkOk
attr title "packets received OK, vector(packetBytes)"
vector 115 test1.client5.eth[0].mac passedUpPk:vector(packetBytes) ETV
attr interpolationmode none
attr source packetSentToUpper
attr title "packets passed to higher layer, vector(packetBytes)"
vector 116 test1.client6.eth[0].mac rxPkOk:vector(packetBytes) ETV
attr interpolationmode none
attr source rxPkOk
attr title "packets received OK, vector(packetBytes)"
vector 117 test1.client6.eth[0].mac passedUpPk:vector(packetBytes) ETV
attr interpolationmode none
attr source packetSentToUpper
attr title "packets passed to higher layer, vector(packetBytes)"
vector 118 test1.switchD.eth[0].mac rxPkOk:vector(packetBytes) ETV
attr interpolationmode none
attr source rxPkOk
attr title "packets received OK, vector(packetBytes)"
vector 119 test1.switchD.eth[0].mac passedUpPk:vector(packetBytes) ETV
attr interpolationmode none
attr source packetSentToUpper
attr title "packets passed to higher layer, vector(packetBytes)"
vector 120 test1.client4.eth[0].encap decapPk:vector(packetBytes) ETV
attr interpolationmode none
attr source decapPk
attr title "packets decapsulated, vector(packetBytes)"
vector 121 test1.client5.eth[0].encap decapPk:vector(packetBytes) ETV
attr interpolationmode none
attr source decapPk
attr title "packets decapsulated, vector(packetBytes)"
vector 122 test1.client6.eth[0].encap decapPk:vector(packetBytes) ETV
attr interpolationmode none
attr source decapPk
attr title "packets decapsulated, vector(packetBytes)"
vector 123 test1.switchD.eth[0].queue.dataQueue rcvdPk:vector(packetBytes) ETV
attr interpolationmode none
attr title "received packets, vector(packetBytes)"
vector 124 test1.switchD.eth[0].queue.dataQueue queueingTime:vector ETV
attr interpolationmode none
attr title "queueing time, vector"
vector 125 test1.switchD.eth[2].queue.dataQueue rcvdPk:vector(packetBytes) ETV
attr interpolationmode none
attr title "received packets, vector(packetBytes)"
vector 126 test1.switchD.eth[2].queue.dataQueue queueingTime:vector ETV
attr interpolationmode none
attr title "queueing time, vector"
vector 127 test1.switchD.eth[3].queue.dataQueue rcvdPk:vector(packetBytes) ETV
attr interpolationmode none
attr title "received packets, vector(packetBytes)"
vector 128 test1.switchD.eth[3].queue.dataQueue queueingTime:vector ETV
attr interpolationmode none
attr title "queueing time, vector"
vector 129 test1.switchD.eth[0].mac rxPkFromHL:vector(packetBytes) ETV
attr interpolationmode none
attr source rxPkFromHL
attr title "packet bytes from higher layer, vector(packetBytes)"
vector 130 test1.switchD.eth[2].mac rxPkFromHL:vector(packetBytes) ETV
attr interpolationmode none
attr source rxPkFromHL
attr title "packet bytes from higher layer, vector(packetBytes)"
vector 131 test1.switchD.eth[3].mac rxPkFromHL:vector(packetBytes) ETV
attr interpolationmode none
attr source rxPkFromHL
attr title "packet bytes from higher layer, vector(packetBytes)"
vector 132 test1.switchD.eth[0].mac txPk:vector(packetBytes) ETV
attr interpolationmode none
attr source txPk
attr title "packets transmitted, vector(packetBytes)"
vector 133 test1.switchD.eth[2].mac txPk:vector(packetBytes) ETV
attr interpolationmode none
attr source txPk
attr title "packets transmitted, vector(packetBytes)"
vector 134 test1.switchD.eth[3].mac txPk:vector(packetBytes) ETV
attr interpolationmode none
attr source txPk
attr title "packets transmitted, vector(packetBytes)"
vector 135 test1.switchC.eth[0].mac rxPkOk:vector(packetBytes) ETV
attr interpolationmode none
attr source rxPkOk
attr title "packets received OK, vector(packetBytes)"
vector 136 test1.switchC.eth[0].mac passedUpPk:vector(packetBytes) ETV
attr interpolationmode none
attr source packetSentToUpper
attr title "packets passed to higher layer, vector(packetBytes)"
vector 137 test1.switchE.eth[1].mac rxPkOk:vector(packetBytes) ETV
attr interpolationmode none
attr source rxPkOk
attr title "packets received OK, vector(packetBytes)"
vector 138 test1.switchE.eth[1].mac passedUpPk:vector(packetBytes) ETV
attr interpolationmode none
attr source packetSentToUpper
attr title "packets passed to higher layer, vector(packetBytes)"
vector 139 test1.server2.eth[0].mac rxPkOk:vector(packetBytes) ETV
attr interpolationmode none
attr source rxPkOk
attr title "packets received OK, vector(packetBytes)"
vector 140 test1.server2.eth[0].mac passedUpPk:vector(packetBytes) ETV
attr interpolationmode none
attr source packetSentToUpper
attr title "packets passed to higher layer, vector(packetBytes)"
vector 141 test1.server2.eth[0].encap decapPk:vector(packetBytes) ETV
attr interpolationmode none
attr source decapPk
attr title "packets decapsulated, vector(packetBytes)"
vector 142 test1.switchE.eth[0].queue.dataQueue rcvdPk:vector(packetBytes) ETV
attr interpolationmode none
attr title "received packets, vector(packetBytes)"
vector 143 test1.switchE.eth[0].queue.dataQueue queueingTime:vector ETV
attr interpolationmode none
attr title "queueing time, vector"
vector 144 test1.switchE.eth[0].mac rxPkFromHL:vector(packetBytes) ETV
attr interpolationmode none
attr source rxPkFromHL
attr title "packet bytes from higher layer, vector(packetBytes)"
vector 145 test1.switchE.eth[0].mac txPk:vector(packetBytes) ETV
attr interpolationmode none
attr source txPk
attr title "packets transmitted, vector(packetBytes)"
vector 146 test1.server1.eth[0].mac rxPkOk:vector(packetBytes) ETV
attr interpolationmode none
attr source rxPkOk
attr title "packets received OK, vector(packetBytes)"
vector 147 test1.server1.eth[0].mac passedUpPk:vector(packetBytes) ETV
attr interpolationmode none
attr source packetSentToUpper
attr title "packets passed to higher layer, vector(packetBytes)"
vector 148 test1.server1.eth[0].encap decapPk:vector(packetBytes) ETV
attr interpolationmode none
attr source decapPk
attr title "packets decapsulated, vector(packetBytes)"
vector 149 test1.server1.networkLayer.arp sentReply:vector ETV
attr title "ARP replies sent, vector"
vector 150 test1.server1.eth[0].encap encapPk:vector(packetBytes) ETV
attr interpolationmode none
attr source encapPk
attr title "packets encapsulated, vector(packetBytes)"
vector 151 test1.server1.eth[0].queue.dataQueue rcvdPk:vector(packetBytes) ETV
attr interpolationmode none
attr title "received packets, vector(packetBytes)"
vector 152 test1.server1.eth[0].queue.dataQueue queueingTime:vector ETV
attr interpolationmode none
attr title "queueing time, vector"
vector 153 test1.server1.eth[0].mac rxPkFromHL:vector(packetBytes) ETV
attr interpolationmode none
attr source rxPkFromHL
attr title "packet bytes from higher layer, vector(packetBytes)"
vector 154 test1.server1.eth[0].mac txPk:vector(packetBytes) ETV
attr interpolationmode none
attr source txPk
attr title "packets transmitted, vector(packetBytes)"
vector 155 test1.switchE.eth[0].mac rxPkOk:vector(packetBytes) ETV
attr interpolationmode none
attr source rxPkOk
attr title "packets received OK, vector(packetBytes)"
vector 156 test1.switchE.eth[0].mac passedUpPk:vector(packetBytes) ETV
attr interpolationmode none
attr source packetSentToUpper
attr title "packets passed to higher layer, vector(packetBytes)"
vector 157 test1.switchE.eth[1].queue.dataQueue rcvdPk:vector(packetBytes) ETV
attr interpolationmode none
attr title "received packets, vector(packetBytes)"
vector 158 test1.switchE.eth[1].queue.dataQueue queueingTime:vector ETV
attr interpolationmode none
attr title "queueing time, vector"
vector 159 test1.switchE.eth[1].mac rxPkFromHL:vector(packetBytes) ETV
attr interpolationmode none
attr source rxPkFromHL
attr title "packet bytes from higher layer, vector(packetBytes)"
vector 160 test1.switchE.eth[1].mac txPk:vector(packetBytes) ETV
attr interpolationmode none
attr source txPk
attr title "packets transmitted, vector(packetBytes)"
vector 161 test1.switchD.eth[2].mac rxPkOk:vector(packetBytes) ETV
attr interpolationmode none
attr source rxPkOk
attr title "packets received OK, vector(packetBytes)"
vector 162 test1.switchD.eth[2].mac passedUpPk:vector(packetBytes) ETV
attr interpolationmode none
attr source packetSentToUpper
attr title "packets passed to higher layer, vector(packetBytes)"
vector 163 test1.switchD.eth[1].queue.dataQueue rcvdPk:vector(packetBytes) ETV
attr interpolationmode none
attr title "received packets, vector(packetBytes)"
vector 164 test1.switchD.eth[1].queue.dataQueue queueingTime:vector ETV
attr interpolationmode none
attr title "queueing time, vector"
vector 165 test1.switchD.eth[1].mac rxPkFromHL:vector(packetBytes) ETV
attr interpolationmode none
attr source rxPkFromHL
attr title "packet bytes from higher layer, vector(packetBytes)"
vector 166 test1.switchD.eth[1].mac txPk:vector(packetBytes) ETV
attr interpolationmode none
attr source txPk
attr title "packets transmitted, vector(packetBytes)"
vector 167 test1.switchB.eth[1].mac rxPkOk:vector(packetBytes) ETV
attr interpolationmode none
attr source rxPkOk
attr title "packets received OK, vector(packetBytes)"
vector 168 test1.switchB.eth[1].mac passedUpPk:vector(packetBytes) ETV
attr interpolationmode none
attr source packetSentToUpper
attr title "packets passed to higher layer, vector(packetBytes)"
vector 169 test1.switchB.eth[0].queue.dataQueue rcvdPk:vector(packetBytes) ETV
attr interpolationmode none
attr title "received packets, vector(packetBytes)"
vector 170 test1.switchB.eth[0].queue.dataQueue queueingTime:vector ETV
attr interpolationmode none
attr title "queueing time, vector"
vector 171 test1.switchB.eth[0].mac rxPkFromHL:vector(packetBytes) ETV
attr interpolationmode none
attr source rxPkFromHL
attr title "packet bytes from higher layer, vector(packetBytes)"
vector 172 test1.switchB.eth[0].mac txPk:vector(packetBytes) ETV
attr interpolationmode none
attr source txPk
attr title "packets transmitted, vector(packetBytes)"
vector 173 test1.switchA.eth[0].mac rxPkOk:vector(packetBytes) ETV
attr interpolationmode none
attr source rxPkOk
attr title "packets received OK, vector(packetBytes)"
vector 174 test1.switchA.eth[0].mac passedUpPk:vector(packetBytes) ETV
attr interpolationmode none
attr source packetSentToUpper
attr title "packets passed to higher layer, vector(packetBytes)"
vector 175 test1.switchA.eth[4].queue.dataQueue rcvdPk:vector(packetBytes) ETV
attr interpolationmode none
attr title "received packets, vector(packetBytes)"
vector 176 test1.switchA.eth[4].queue.dataQueue queueingTime:vector ETV
attr interpolationmode none
attr title "queueing time, vector"
vector 177 test1.switchA.eth[4].mac rxPkFromHL:vector(packetBytes) ETV
attr interpolationmode none
attr source rxPkFromHL
attr title "packet bytes from higher layer, vector(packetBytes)"
vector 178 test1.switchA.eth[4].mac txPk:vector(packetBytes) ETV
attr interpolationmode none
attr source txPk
attr title "packets transmitted, vector(packetBytes)"
vector 179 test1.client1.eth[0].mac rxPkOk:vector(packetBytes) ETV
attr interpolationmode none
attr source rxPkOk
attr title "packets received OK, vector(packetBytes)"
vector 180 test1.client1.eth[0].mac passedUpPk:vector(packetBytes) ETV
attr interpolationmode none
attr source packetSentToUpper
attr title "packets passed to higher layer, vector(packetBytes)"
vector 181 test1.client1.eth[0].encap decapPk:vector(packetBytes) ETV
attr interpolationmode none
attr source decapPk
attr title "packets decapsulated, vector(packetBytes)"
vector 182 test1.server1.tcp "rcvd seq" ETV
vector 183 test1.server1.tcp "rcvd ack" ETV
vector 184 test1.server1.tcp "advertised window" ETV
vector 185 test1.server1.tcp "send window" ETV
vector 186 test1.server1.tcp tcpRcvQueueBytes ETV
vector 187 test1.server1.tcp "receive window" ETV
vector 188 test1.server1.tcp "sent ack" ETV
vector 189 test1.client1.tcp "rcvd seq" ETV
vector 190 test1.client1.tcp "rcvd ack" ETV
vector 191 test1.client1.tcp "send window" ETV
vector 192 test1.client1.tcpApp[0] sentPk:vector(packetBytes) ETV
attr interpolationmode none
attr source sentPk
attr title "packets sent, vector(packetBytes)"
vector 193 test1.client1.tcp "sent seq" ETV
vector 194 test1.client1.tcp "unacked bytes" ETV
vector 195 test1.server1.tcp "unacked bytes" ETV
vector 196 test1.server1.tcp "rcvd dupAcks" ETV
vector 197 test1.server1.tcpApp[0] rcvdPk:vector(packetBytes) ETV
attr interpolationmode none
attr source rcvdPk
attr title "packets received, vector(packetBytes)"
vector 198 test1.server1.tcpApp[0] endToEndDelay:vector ETV
attr interpolationmode none
attr source messageAge(rcvdPk)
attr title "end-to-end delay, vector"
attr unit s
vector 199 test1.server1.tcpApp[0] sentPk:vector(packetBytes) ETV
attr interpolationmode none
attr source sentPk
attr title "packets sent, vector(packetBytes)"
vector 200 test1.server1.tcp "sent seq" ETV
vector 201 test1.client1.tcp "measured RTT" ETV
vector 202 test1.client1.tcp "smoothed RTT" ETV
vector 203 test1.client1.tcp RTTVAR ETV
vector 204 test1.client1.tcp RTO ETV
vector 205 test1.client1.tcp cwnd ETV
vector 206 test1.client1.tcp "rcvd dupAcks" ETV
vector 207 test1.client1.tcpApp[0] rcvdPk:vector(packetBytes) ETV
attr interpolationmode none
attr source rcvdPk
attr title "packets received, vector(packetBytes)"
vector 208 test1.client1.tcpApp[0] endToEndDelay:vector ETV
attr interpolationmode none
attr source messageAge(rcvdPk)
attr title "end-to-end delay, vector"
attr unit s
vector 209 test1.server1.tcp "measured RTT" ETV
vector 210 test1.server1.tcp "smoothed RTT" ETV
vector 211 test1.server1.tcp RTTVAR ETV
vector 212 test1.server1.tcp RTO ETV
vector 213 test1.server1.tcp cwnd ETV
vector 214 test1.client2.tcp tcpRcvQueueBytes ETV
vector 215 test1.client2.tcp "advertised window" ETV
vector 216 test1.client2.tcp "receive window" ETV
vector 217 test1.client2.tcp "sent ack" ETV
vector 218 test1.client2.networkLayer.arp sentReq:vector ETV
attr title "ARP request sent, vector"
vector 219 test1.client2.eth[0].encap encapPk:vector(packetBytes) ETV
attr interpolationmode none
attr source encapPk
attr title "packets encapsulated, vector(packetBytes)"
vector 220 test1.client2.eth[0].queue.dataQueue rcvdPk:vector(packetBytes) ETV
attr interpolationmode none
attr title "received packets, vector(packetBytes)"
vector 221 test1.client2.eth[0].queue.dataQueue queueingTime:vector ETV
attr interpolationmode none
attr title "queueing time, vector"
vector 222 test1.client2.eth[0].mac rxPkFromHL:vector(packetBytes) ETV
attr interpolationmode none
attr source rxPkFromHL
attr title "packet bytes from higher layer, vector(packetBytes)"
vector 223 test1.client2.eth[0].mac txPk:vector(packetBytes) ETV
attr interpolationmode none
attr source txPk
attr title "packets transmitted, vector(packetBytes)"
vector 224 test1.switchA.eth[3].mac rxPkOk:vector(packetBytes) ETV
attr interpolationmode none
attr source rxPkOk
attr title "packets received OK, vector(packetBytes)"
vector 225 test1.switchA.eth[3].mac passedUpPk:vector(packetBytes) ETV
attr interpolationmode none
attr source packetSentToUpper
attr title "packets passed to higher layer, vector(packetBytes)"
vector 226 test1.switchC.eth[1].queue.dataQueue rcvdPk:vector(packetBytes) ETV
attr interpolationmode none
attr title "received packets, vector(packetBytes)"
vector 227 test1.switchC.eth[1].queue.dataQueue queueingTime:vector ETV
attr interpolationmode none
attr title "queueing time, vector"
vector 228 test1.switchC.eth[1].mac rxPkFromHL:vector(packetBytes) ETV
attr interpolationmode none
attr source rxPkFromHL
attr title "packet bytes from higher layer, vector(packetBytes)"
vector 229 test1.switchC.eth[1].mac txPk:vector(packetBytes) ETV
attr interpolationmode none
attr source txPk
attr title "packets transmitted, vector(packetBytes)"
vector 230 test1.switchA.eth[1].mac rxPkOk:vector(packetBytes) ETV
attr interpolationmode none
attr source rxPkOk
attr title "packets received OK, vector(packetBytes)"
vector 231 test1.switchA.eth[1].mac passedUpPk:vector(packetBytes) ETV
attr interpolationmode none
attr source packetSentToUpper
attr title "packets passed to higher layer, vector(packetBytes)"
vector 232 test1.client3.tcp tcpRcvQueueBytes ETV
vector 233 test1.client3.tcp "advertised window" ETV
vector 234 test1.client3.tcp "receive window" ETV
vector 235 test1.client3.tcp "sent ack" ETV
vector 236 test1.client3.networkLayer.arp sentReq:vector ETV
attr title "ARP request sent, vector"
vector 237 test1.client3.eth[0].encap encapPk:vector(packetBytes) ETV
attr interpolationmode none
attr source encapPk
attr title "packets encapsulated, vector(packetBytes)"
vector 238 test1.client3.eth[0].queue.dataQueue rcvdPk:vector(packetBytes) ETV
attr interpolationmode none
attr title "received packets, vector(packetBytes)"
vector 239 test1.client3.eth[0].queue.dataQueue queueingTime:vector ETV
attr interpolationmode none
attr title "queueing time, vector"
vector 240 test1.client3.eth[0].mac rxPkFromHL:vector(packetBytes) ETV
attr interpolationmode none
attr source rxPkFromHL
attr title "packet bytes from higher layer, vector(packetBytes)"
vector 241 test1.client3.eth[0].mac txPk:vector(packetBytes) ETV
attr interpolationmode none
attr source txPk
attr title "packets transmitted, vector(packetBytes)"
vector 242 test1.switchA.eth[2].mac rxPkOk:vector(packetBytes) ETV
attr interpolationmode none
attr source rxPkOk
attr title "packets received OK, vector(packetBytes)"
vector 243 test1.switchA.eth[2].mac passedUpPk:vector(packetBytes) ETV
attr interpolationmode none
attr source packetSentToUpper
attr title "packets passed to higher layer, vector(packetBytes)"
vector 244 test1.client6.tcp tcpRcvQueueBytes ETV
vector 245 test1.client6.tcp "advertised window" ETV
vector 246 test1.client6.tcp "receive window" ETV
vector 247 test1.client6.tcp "sent ack" ETV
vector 248 test1.client6.networkLayer.arp sentReq:vector ETV
attr title "ARP request sent, vector"
vector 249 test1.client6.eth[0].encap encapPk:vector(packetBytes) ETV
attr interpolationmode none
attr source encapPk
attr title "packets encapsulated, vector(packetBytes)"
vector 250 test1.client6.eth[0].queue.dataQueue rcvdPk:vector(packetBytes) ETV
attr interpolationmode none
attr title "received packets, vector(packetBytes)"
vector 251 test1.client6.eth[0].queue.dataQueue queueingTime:vector ETV
attr interpolationmode none
attr title "queueing time, vector"
vector 252 test1.client6.eth[0].mac rxPkFromHL:vector(packetBytes) ETV
attr interpolationmode none
attr source rxPkFromHL
attr title "packet bytes from higher layer, vector(packetBytes)"
vector 253 test1.client6.eth[0].mac txPk:vector(packetBytes) ETV
attr interpolationmode none
attr source txPk
attr title "packets transmitted, vector(packetBytes)"
vector 254 test1.switchB.eth[4].mac rxPkOk:vector(packetBytes) ETV
attr interpolationmode none
attr source rxPkOk
attr title "packets received OK, vector(packetBytes)"
vector 255 test1.switchB.eth[4].mac passedUpPk:vector(packetBytes) ETV
attr interpolationmode none
attr source packetSentToUpper
attr title "packets passed to higher layer, vector(packetBytes)"
vector 256 test1.server1.tcp "rcvd seq" ETV
vector 257 test1.server1.tcp "rcvd ack" ETV
vector 258 test1.server1.tcp "advertised window" ETV
vector 259 test1.server1.tcp "send window" ETV
vector 260 test1.server1.tcp tcpRcvQueueBytes ETV
vector 261 test1.server1.tcp "receive window" ETV
vector 262 test1.server1.tcp "sent ack" ETV
vector 263 test1.client2.tcp "rcvd seq" ETV
vector 264 test1.client2.tcp "rcvd ack" ETV
vector 265 test1.client2.tcp "send window" ETV
vector 266 test1.client2.tcpApp[0] sentPk:vector(packetBytes) ETV
attr interpolationmode none
attr source sentPk
attr title "packets sent, vector(packetBytes)"
vector 267 test1.client2.tcp "sent seq" ETV
vector 268 test1.client2.tcp "unacked bytes" ETV
vector 269 test1.server1.tcp "rcvd seq" ETV
vector 270 test1.server1.tcp "rcvd ack" ETV
vector 271 test1.server1.tcp "advertised window" ETV
vector 272 test1.server1.tcp "send window" ETV
vector 273 test1.server1.tcp tcpRcvQueueBytes ETV
vector 274 test1.server1.tcp "receive window" ETV
vector 275 test1.server1.tcp "sent ack" ETV
vector 276 test1.server1.tcp "unacked bytes" ETV
vector 277 test1.server1.tcp "rcvd dupAcks" ETV
vector 278 test1.server1.tcp "sent seq" ETV
vector 279 test1.server1.tcp "rcvd seq" ETV
vector 280 test1.server1.tcp "rcvd ack" ETV
vector 281 test1.server1.tcp "advertised window" ETV
vector 282 test1.server1.tcp "send window" ETV
vector 283 test1.server1.tcp tcpRcvQueueBytes ETV
vector 284 test1.server1.tcp "receive window" ETV
vector 285 test1.server1.tcp "sent ack" ETV
vector 286 test1.client6.tcp "rcvd seq" ETV
vector 287 test1.client6.tcp "rcvd ack" ETV
vector 288 test1.client6.tcp "send window" ETV
vector 289 test1.client6.tcpApp[0] sentPk:vector(packetBytes) ETV
attr interpolationmode none
attr source sentPk
attr title "packets sent, vector(packetBytes)"
vector 290 test1.client6.tcp "sent seq" ETV
vector 291 test1.client6.tcp "unacked bytes" ETV
vector 292 test1.client2.tcp "measured RTT" ETV
vector 293 test1.client2.tcp "smoothed RTT" ETV
vector 294 test1.client2.tcp RTTVAR ETV
vector 295 test1.client2.tcp RTO ETV
vector 296 test1.client2.tcp cwnd ETV
vector 297 test1.client2.tcp "rcvd dupAcks" ETV
vector 298 test1.client3.tcp "rcvd seq" ETV
vector 299 test1.client3.tcp "rcvd ack" ETV
vector 300 test1.client3.tcp "send window" ETV
vector 301 test1.client3.tcpApp[0] sentPk:vector(packetBytes) ETV
attr interpolationmode none
attr source sentPk
attr title "packets sent, vector(packetBytes)"
vector 302 test1.client3.tcp "sent seq" ETV
vector 303 test1.client3.tcp "unacked bytes" ETV
vector 304 test1.client2.tcpApp[0] rcvdPk:vector(packetBytes) ETV
attr interpolationmode none
attr source rcvdPk
attr title "packets received, vector(packetBytes)"
vector 305 test1.client2.tcpApp[0] endToEndDelay:vector ETV
attr interpolationmode none
attr source messageAge(rcvdPk)
attr title "end-to-end delay, vector"
attr unit s
vector 306 test1.server1.tcp "unacked bytes" ETV
vector 307 test1.server1.tcp "rcvd dupAcks" ETV
vector 308 test1.server1.tcp "sent seq" ETV
vector 309 test1.server1.tcp "unacked bytes" ETV
vector 310 test1.server1.tcp "measured RTT" ETV
vector 311 test1.server1.tcp "smoothed RTT" ETV
vector 312 test1.server1.tcp RTTVAR ETV
vector 313 test1.server1.tcp RTO ETV
vector 314 test1.server1.tcp cwnd ETV
vector 315 test1.client6.tcp "measured RTT" ETV
vector 316 test1.client6.tcp "smoothed RTT" ETV
vector 317 test1.client6.tcp RTTVAR ETV
vector 318 test1.client6.tcp RTO ETV
vector 319 test1.client6.tcp cwnd ETV
vector 320 test1.client6.tcp "rcvd dupAcks" ETV
vector 321 test1.server1.tcp "rcvd dupAcks" ETV
vector 322 test1.server1.tcp "sent seq" ETV
vector 323 test1.client6.tcpApp[0] rcvdPk:vector(packetBytes) ETV
attr interpolationmode none
attr source rcvdPk
attr title "packets received, vector(packetBytes)"
vector 324 test1.client6.tcpApp[0] endToEndDelay:vector ETV
attr interpolationmode none
attr source messageAge(rcvdPk)
attr title "end-to-end delay, vector"
attr unit s
vector 325 test1.client4.tcp tcpRcvQueueBytes ETV
vector 326 test1.client4.tcp "advertised window" ETV
vector 327 test1.client4.tcp "receive window" ETV
vector 328 test1.client4.tcp "sent ack" ETV
vector 329 test1.client4.networkLayer.arp sentReq:vector ETV
attr title "ARP request sent, vector"
vector 330 test1.client4.eth[0].encap encapPk:vector(packetBytes) ETV
attr interpolationmode none
attr source encapPk
attr title "packets encapsulated, vector(packetBytes)"
vector 331 test1.client4.eth[0].queue.dataQueue rcvdPk:vector(packetBytes) ETV
attr interpolationmode none
attr title "received packets, vector(packetBytes)"
vector 332 test1.client4.eth[0].queue.dataQueue queueingTime:vector ETV
attr interpolationmode none
attr title "queueing time, vector"
vector 333 test1.client4.eth[0].mac rxPkFromHL:vector(packetBytes) ETV
attr interpolationmode none
attr source rxPkFromHL
attr title "packet bytes from higher layer, vector(packetBytes)"
vector 334 test1.client4.eth[0].mac txPk:vector(packetBytes) ETV
attr interpolationmode none
attr source txPk
attr title "packets transmitted, vector(packetBytes)"
vector 335 test1.switchB.eth[2].mac rxPkOk:vector(packetBytes) ETV
attr interpolationmode none
attr source rxPkOk
attr title "packets received OK, vector(packetBytes)"
vector 336 test1.switchB.eth[2].mac passedUpPk:vector(packetBytes) ETV
attr interpolationmode none
attr source packetSentToUpper
attr title "packets passed to higher layer, vector(packetBytes)"
vector 337 test1.server1.tcp "measured RTT" ETV
vector 338 test1.server1.tcp "smoothed RTT" ETV
vector 339 test1.server1.tcp RTTVAR ETV
vector 340 test1.server1.tcp RTO ETV
vector 341 test1.server1.tcp cwnd ETV
vector 342 test1.client3.tcp "measured RTT" ETV
vector 343 test1.client3.tcp "smoothed RTT" ETV
vector 344 test1.client3.tcp RTTVAR ETV
vector 345 test1.client3.tcp RTO ETV
vector 346 test1.client3.tcp cwnd ETV
vector 347 test1.client3.tcp "rcvd dupAcks" ETV
vector 348 test1.client3.tcpApp[0] rcvdPk:vector(packetBytes) ETV
attr interpolationmode none
attr source rcvdPk
attr title "packets received, vector(packetBytes)"
vector 349 test1.client3.tcpApp[0] endToEndDelay:vector ETV
attr interpolationmode none
attr source messageAge(rcvdPk)
attr title "end-to-end delay, vector"
attr unit s
vector 350 test1.server1.tcp "measured RTT" ETV
vector 351 test1.server1.tcp "smoothed RTT" ETV
vector 352 test1.server1.tcp RTTVAR ETV
vector 353 test1.server1.tcp RTO ETV
vector 354 test1.server1.tcp cwnd ETV
vector 355 test1.server1.tcp "rcvd seq" ETV
vector 356 test1.server1.tcp "rcvd ack" ETV
vector 357 test1.server1.tcp "advertised window" ETV
vector 358 test1.server1.tcp "send window" ETV
vector 359 test1.server1.tcp tcpRcvQueueBytes ETV
vector 360 test1.server1.tcp "receive window" ETV
vector 361 test1.server1.tcp "sent ack" ETV
vector 362 test1.client4.tcp "rcvd seq" ETV
vector 363 test1.client4.tcp "rcvd ack" ETV
vector 364 test1.client4.tcp "send window" ETV
vector 365 test1.client4.tcpApp[0] sentPk:vector(packetBytes) ETV
attr interpolationmode none
attr source sentPk
attr title "packets sent, vector(packetBytes)"
vector 366 test1.client4.tcp "sent seq" ETV
vector 367 test1.client4.tcp "unacked bytes" ETV
vector 368 test1.server1.tcp "unacked bytes" ETV
vector 369 test1.server1.tcp "rcvd dupAcks" ETV
vector 370 test1.server1.tcp "sent seq" ETV
vector 371 test1.client4.tcp "measured RTT" ETV
vector 372 test1.client4.tcp "smoothed RTT" ETV
vector 373 test1.client4.tcp RTTVAR ETV
vector 374 test1.client4.tcp RTO ETV
vector 375 test1.client4.tcp cwnd ETV
vector 376 test1.client4.tcp "rcvd dupAcks" ETV
vector 377 test1.client4.tcpApp[0] rcvdPk:vector(packetBytes) ETV
attr interpolationmode none
attr source rcvdPk
attr title "packets received, vector(packetBytes)"
vector 378 test1.client4.tcpApp[0] endToEndDelay:vector ETV
attr interpolationmode none
attr source messageAge(rcvdPk)
attr title "end-to-end delay, vector"
attr unit s
vector 379 test1.client5.tcp tcpRcvQueueBytes ETV
vector 380 test1.client5.tcp "advertised window" ETV
vector 381 test1.client5.tcp "receive window" ETV
vector 382 test1.client5.tcp "sent ack" ETV
vector 383 test1.client5.networkLayer.arp sentReq:vector ETV
attr title "ARP request sent, vector"
vector 384 test1.client5.eth[0].encap encapPk:vector(packetBytes) ETV
attr interpolationmode none
attr source encapPk
attr title "packets encapsulated, vector(packetBytes)"
vector 385 test1.client5.eth[0].queue.dataQueue rcvdPk:vector(packetBytes) ETV
attr interpolationmode none
attr title "received packets, vector(packetBytes)"
vector 386 test1.client5.eth[0].queue.dataQueue queueingTime:vector ETV
attr interpolationmode none
attr title "queueing time, vector"
vector 387 test1.client5.eth[0].mac rxPkFromHL:vector(packetBytes) ETV
attr interpolationmode none
attr source rxPkFromHL
attr title "packet bytes from higher layer, vector(packetBytes)"
vector 388 test1.client5.eth[0].mac txPk:vector(packetBytes) ETV
attr interpolationmode none
attr source txPk
attr title "packets transmitted, vector(packetBytes)"
vector 389 test1.switchB.eth[3].mac rxPkOk:vector(packetBytes) ETV
attr interpolationmode none
attr source rxPkOk
attr title "packets received OK, vector(packetBytes)"
vector 390 test1.switchB.eth[3].mac passedUpPk:vector(packetBytes) ETV
attr interpolationmode none
attr source packetSentToUpper
attr title "packets passed to higher layer, vector(packetBytes)"
vector 391 test1.server1.tcp "measured RTT" ETV
vector 392 test1.server1.tcp "smoothed RTT" ETV
vector 393 test1.server1.tcp RTTVAR ETV
vector 394 test1.server1.tcp RTO ETV
vector 395 test1.server1.tcp cwnd ETV
vector 396 test1.server1.tcp "rcvd seq" ETV
vector 397 test1.server1.tcp "rcvd ack" ETV
vector 398 test1.server1.tcp "advertised window" ETV
vector 399 test1.server1.tcp "send window" ETV
vector 400 test1.server1.tcp tcpRcvQueueBytes ETV
vector 401 test1.server1.tcp "receive window" ETV
vector 402 test1.server1.tcp "sent ack" ETV
vector 403 test1.client5.tcp "rcvd seq" ETV
vector 404 test1.client5.tcp "rcvd ack" ETV
vector 405 test1.client5.tcp "send window" ETV
vector 406 test1.client5.tcpApp[0] sentPk:vector(packetBytes) ETV
attr interpolationmode none
attr source sentPk
attr title "packets sent, vector(packetBytes)"
vector 407 test1.client5.tcp "sent seq" ETV
vector 408 test1.client5.tcp "unacked bytes" ETV
0	49136 9 0 0 0 0 1 0 0 0 0
1	49145 17595 0 62483 0 0.499944 861 0 7 624 1330
2	66740 9 0 0 0 0 1 0 0 0 0
3	66749 4303 0 57419 0 0.4820544 207 0 10 427 2003
4	71052 9 0 0 0 0 1 0 0 0 0
5	71061 3139 0 61017 0 0.4956784 151 0 11 423 2347
6	74200 9 0 0 0 0 1 0 0 0 0
7	74209 1332 0 62382 0 0.499696 64 0 4 56 104
8	75541 9 0 0 0 0 1 0 0 0 0
9	75550 184 0 56994 0 0.4808032 9 0 1 4 4
10	75734 10 0 0 0 0 1 0 0 0 0
11	75744 4808 0 62362 0 0.4995408 221 0 4 172 278
12	80552 10 0 0 0 0 1 0 0 0 0
13	80562 32175 0 62495 0 0.4999552 1468 0 31 10348 194606
14	112737 10 0 0 0 0 1 0 0 0 0
15	112747 10 0 0 0 0 1 0 0 0 0
16	112757 10 0 0 0 0 1 0 0 0 0
17	112767 18386 0 62472 0 0.4999024 857 0 4 442 472
18	131153 10 0 0 0 0 1 0 0 0 0
19	131163 7949 0 61700 0 0.497736 365 0 6 276 566
20	139112 10 0 0 0 0 1 0 0 0 0
21	139122 2862 0 60251 0 0.4931968 131 0 1 65 65
22	141984 10 0 0 0 0 1 0 0 0 0
23	141994 4090 0 56622 0 0.4795728 187 0 1 93 93
24	146084 10 0 0 0 0 1 0 0 0 0
25	146094 18252 0 62447 0 0.4998304 849 0 7 512 868
26	164346 10 0 0 0 0 1 0 0 0 0
27	164356 18321 0 62396 0 0.4997168 853 0 8 494 794
28	182677 10 0 0 0 0 1 0 0 0 0
29	182687 24218 0 62370 0 0.4995872 1123 0 13 1655 8561
30	206905 10 0 0 0 0 1 0 0 0 0
31	206915 1240 0 62420 0 0.499784 57 0 1 28 28
32	208155 10 0 0 0 0 1 0 0 0 0
33	208165 332 0 56318 0 0.4786784 15 0 1 7 7
34	208497 10 0 0 0 0 1 0 0 0 0
35	208507 4376 0 61642 0 0.4974832 201 0 1 100 100
36	212883 10 0 0 0 0 1 0 0 0 0
37	212893 7963 0 62426 0 0.4997936 365 0 7 316 798
38	220856 10 0 0 0 0 1 0 0 0 0
39	220866 6623 0 62501 0 0.4999856 305 0 4 176 224
40	227489 10 0 0 0 0 1 0 0 0 0
41	227499 6946 0 62283 0 0.4993136 319 0 3 175 199
42	234445 10 0 0 0 0 1 0 0 0 0
43	234455 23841 0 62462 0 0.499872 1107 0 7 663 1009
44	258296 10 0 0 0 0 1 0 0 0 0
45	258306 31452 0 62468 0 0.4998864 1436 0 40 11002 232706
46	289758 10 0 0 0 0 1 0 0 0 0
47	289768 310 0 42016 0 0.4287856 13 0 1 6 6
48	290078 10 0 0 0 0 1 0 0 0 0
49	290088 30096 0 62435 0 0.4998208 1394 0 7 1305 3829
50	320184 10 0 0 0 0 1 0 0 0 0
51	320194 30950 0 62441 0 0.4998256 1435 0 7 1437 4949
52	351144 13552 28 62478 0 0.499944 631 0 0 0 0
53	364696 11025 28 62478 0 0.499944 430 7504 123493 28730393 2382521969333
54	375721 10488 28 62478 0 0.499944 429 7504 7504 3219216 24156996864
55	386209 10951 28 62478 0 0.499944 429 0 115989 25495956 1975489985980
56	397160 11 29 29 0 0 1 1 1 1 1
57	397171 9875 31 62481 0 0.499944 430 28 576 137792 74977120
58	407046 9875 33 62483 0 0.499944 430 64 594 146770 80227780
59	416921 9704 33 62483 0 0.499944 430 0 0.002968 0.0698704 0.00012269945088
60	426625 9881 35 62485 0 0.499944 430 64 594 146770 80227780
61	436506 9856 36 62353 0.0000576 0.4995104 429 64 594 146706 80223684
62	446362 9790 38 62469 0.0020576 0.4999024 426 64 594 146514 80211396
63	456152 9790 38 62469 0.0020576 0.4999024 426 64 594 146514 80211396
64	465942 9846 44 62472 0.0020576 0.4999024 428 64 594 146642 80219588
65	475788 9269 44 62472 0.0020576 0.4999024 428 0 0.000424 0.002873340654 1.0496642929713e-006
66	485057 4251 45 61700 0.0020576 0.497736 182 64 594 64648 35619472
67	489308 4178 45 61700 0.0020576 0.497736 182 0 0.000424 0.0114432 4.70367744e-006
68	493486 1520 46 60251 0.0020576 0.4931968 65 64 594 19530 10379700
69	495006 1426 46 60251 0.0020576 0.4931968 65 0 0 0 0
70	496432 2176 47 56622 0.0020576 0.4795728 93 64 594 28742 15376748
71	498608 2040 47 56622 0.0020576 0.4795728 93 0 0 0 0
72	500648 9836 52 62474 0.0020576 0.4999024 428 64 594 146642 80219588
73	510484 4252 53 61702 0.0020576 0.497736 182 64 594 64648 35619472
74	514736 1520 54 60253 0.0020576 0.4931968 65 64 594 19530 10379700
75	516256 2176 55 56624 0.0020576 0.4795728 93 64 594 28742 15376748
76	518432 9836 56 62496 0.0021152 0.49996 428 64 594 146642 80219588
77	528268 4261 57 61722 0.0021152 0.4977936 182 64 594 64648 35619472
78	532529 1521 58 60390 0.0021152 0.4936784 65 64 594 19530 10379700
79	534050 2175 59 56763 0.0021152 0.4800544 93 64 594 28742 15376748
80	536225 9771 64 61294 0.0041152 0.4964224 425 64 594 145390 79509820
81	545996 9771 64 61294 0.0041152 0.4964224 425 64 594 145390 79509820
82	555767 4260 65 62423 0.0041152 0.4997936 182 64 594 64648 35619472
83	560027 4260 65 62423 0.0041152 0.4997936 182 64 594 64648 35619472
84	564287 1521 66 61009 0.0041152 0.4956784 65 64 594 19530 10379700
85	565808 1521 66 61009 0.0041152 0.4956784 65 64 594 19530 10379700
86	567329 2175 67 57411 0.0041152 0.4820544 93 64 594 28742 15376748
87	569504 2175 67 57411 0.0041152 0.4820544 93 64 594 28742 15376748
88	571679 1521 70 61010 0.0041152 0.4956784 65 28 576 18076 9674544
89	573200 2175 71 57412 0.0041152 0.4820544 93 28 576 26700 14341808
90	575375 12961 79 62370 0.0041152 0.4995872 561 64 594 194904 106919856
91	588336 13340 79 62370 0.0041152 0.4995872 561 0 0.004048 0.213851127955 0.00047342112300241
92	601676 650 80 62420 0.0041152 0.499784 28 64 594 5502 2555868
93	602326 615 80 62420 0.0041152 0.499784 28 0 0 0 0
94	602941 168 81 56318 0.0041152 0.4786784 7 64 64 448 28672
95	603109 161 81 56318 0.0041152 0.4786784 7 0 0 0 0
96	603270 2327 82 61642 0.0041152 0.4974832 100 64 594 29190 15405420
97	605597 2190 82 61642 0.0041152 0.4974832 100 0 0.0002896 0.0002896 8.386816e-008
98	607787 4260 83 62426 0.0041152 0.4997936 182 64 594 64648 35619472
99	612047 4225 83 62426 0.0041152 0.4997936 182 0 0.000424 0.013992 5.78295552e-006
100	616272 13511 91 62372 0.0041152 0.4995872 561 64 594 194904 106919856
101	629783 678 92 62422 0.0041152 0.499784 28 64 594 5502 2555868
102	630461 175 93 56320 0.0041152 0.4786784 7 64 64 448 28672
103	630636 2425 94 61644 0.0041152 0.4974832 100 64 594 29190 15405420
104	633061 4439 95 62428 0.0041152 0.4997936 182 64 594 64648 35619472
105	637500 13478 96 62200 0.0041728 0.4990192 560 64 594 194310 106567020
106	650978 682 97 62451 0.0041728 0.4998416 28 64 594 5502 2555868
107	651660 174 98 56325 0.0041728 0.478736 7 64 64 448 28672
108	651834 2429 99 61646 0.0041728 0.4975408 100 64 594 29190 15405420
109	654263 4449 100 62452 0.0041728 0.4998512 182 64 594 64648 35619472
110	658712 13434 106 62385 0.0061728 0.4997008 558 64 594 193122 105861348
111	672146 13434 106 62385 0.0061728 0.4997008 558 64 594 193122 105861348
112	685580 612 107 62341 0.0061728 0.4994736 25 64 594 5310 2543580
113	686192 612 107 62341 0.0061728 0.4994736 25 64 594 5310 2543580
114	686804 175 108 56958 0.0061728 0.480736 7 64 64 448 28672
115	686979 175 108 56958 0.0061728 0.480736 7 64 64 448 28672
116	687154 2430 109 62355 0.0061728 0.4995408 100 64 594 29190 15405420
117	689584 2430 109 62355 0.0061728 0.4995408 100 64 594 29190 15405420
118	692014 4401 110 62465 0.0061728 0.4998864 180 64 594 64520 35611280
119	696415 4401 110 62465 0.0061728 0.4998864 180 64 594 64520 35611280
120	700816 612 112 62342 0.0061728 0.4994736 25 28 576 4684 2346672
121	701428 175 113 56959 0.0061728 0.480736 7 28 44 212 6640
122	701603 2430 114 62356 0.0061728 0.4995408 100 28 576 26980 14353008
123	704033 3858 122 62283 0.0061728 0.4993136 159 64 594 48336 25760544
124	707891 3713 122 62283 0.0061728 0.4993136 159 0 0.000424 0.002984 9.0061568e-007
125	711604 17684 123 62468 0.0061728 0.4998864 732 64 594 257258 141448052
126	729288 18795 123 62456 0.0061728 0.4998624 703 0 0.009624 1.441258940654 0.0085348438052122
127	748083 162 124 42016 0.0061728 0.4287856 6 64 64 384 24576
128	748245 156 124 42016 0.0061728 0.4287856 6 0 0 0 0
129	748401 3858 131 62285 0.0061728 0.4993136 159 64 594 48336 25760544
130	752259 16958 132 62458 0.0061728 0.4998624 703 64 594 249042 137144388
131	769217 162 133 42020 0.0061728 0.4287856 6 64 64 384 24576
132	769379 3857 134 62305 0.0062304 0.4993712 159 64 594 48336 25760544
133	773236 16951 135 62454 0.0062304 0.4998528 702 64 594 248448 136791552
134	790187 162 136 42039 0.0062304 0.4288432 6 64 64 384 24576
135	790349 3787 140 62498 0.0082304 0.4999856 156 64 594 48144 25748256
136	794136 3787 140 62498 0.0082304 0.4999856 156 64 594 48144 25748256
137	797923 16832 141 62432 0.0082304 0.4998208 697 64 594 246008 135376112
138	814755 16832 141 62432 0.0082304 0.4998208 697 64 594 246008 135376112
139	831587 162 142 42551 0.0082304 0.4308432 6 64 64 384 24576
140	831749 162 142 42551 0.0082304 0.4308432 6 64 64 384 24576
141	831911 162 145 42553 0.0082304 0.4308432 6 28 28 168 4704
142	832073 16832 148 62435 0.0082304 0.4998208 697 64 594 246008 135376112
143	848905 17054 148 62410 0.0082304 0.4997536 696 0 0.000424 0.077808714811 3.2733532301582e-005
144	865959 16800 151 62412 0.0082304 0.4997536 696 64 594 245944 135372016
145	882759 16791 152 62403 0.008288 0.499744 695 64 594 245350 135019180
146	899550 16458 154 62486 0.010288 0.4999552 681 64 594 243394 134264356
147	916008 16458 154 62486 0.010288 0.4999552 681 64 594 243394 134264356
148	932466 16458 155 62487 0.010288 0.4999552 681 28 576 229264 125563072
149	948924 140 157 45450 0.010288 0.4419744 6 1 1 6 6
150	949064 17819 159 62493 0.010288 0.4999552 740 28 576 217688 117072896
151	966883 17819 161 62495 0.010288 0.4999552 740 64 594 233390 125438780
152	984702 19573 161 62390 0.010288 0.499712 727 0 0.012544 1.5657232 0.01006340794624
153	1004275 17502 163 62392 0.010288 0.499712 727 64 594 228848 122944352
154	1021777 17463 164 62389 0.0103456 0.4997024 726 64 594 228254 122591516
155	1039240 17246 166 62436 0.0123456 0.4998256 717 64 594 226088 121508432
156	1056486 17246 166 62436 0.0123456 0.4998256 717 64 594 226088 121508432
157	1073732 17246 169 62441 0.0123456 0.4998256 717 64 594 226088 121508432
158	1090978 17377 169 62441 0.0123456 0.4998256 717 0 0.000424 0.067992517514 2.8496202948941e-005
159	1108355 17242 171 62443 0.0123456 0.4998256 717 64 594 226088 121508432
160	1125597 17225 172 62431 0.0124032 0.499816 716 64 594 225494 121155596
161	1142822 16983 174 62459 0.0144032 0.499872 706 64 594 223264 120068416
162	1159805 16983 174 62459 0.0144032 0.499872 706 64 594 223264 120068416
163	1176788 13287 177 62462 0.0144032 0.499872 553 64 594 175312 94332448
164	1190075 12906 177 62462 0.0144032 0.499872 553 0 0.000424 0.0215024 8.45810432e-006
165	1202981 13284 179 62464 0.0144032 0.499872 553 64 594 175312 94332448
166	1216265 13255 180 62429 0.0144608 0.4997952 552 64 594 174718 93979612
167	1229520 13090 182 62417 0.0164608 0.499784 545 64 594 172680 92904720
168	1242610 13090 182 62417 0.0164608 0.499784 545 64 594 172680 92904720
169	1255700 10220 185 62396 0.0164608 0.4997168 426 64 594 138564 74980296
170	1265920 9775 185 62396 0.0164608 0.4997168 426 0 0.0004912 0.005987127955 2.3403692191585e-006
171	1275695 10215 187 62398 0.0164608 0.4997168 426 64 594 138564 74980296
172	1285910 10190 188 62365 0.0165184 0.4995728 425 64 594 137970 74627460
173	1296100 10120 190 62444 0.0185184 0.4998304 422 64 594 136188 73568952
174	1306220 10120 190 62444 0.0185184 0.4998304 422 64 594 136188 73568952
175	1316340 10178 193 62447 0.0185184 0.4998304 424 64 594 136316 73577144
176	1326518 9850 193 62447 0.0185184 0.4998304 424 0 0.000424 0.008226940654 2.8418150814129e-006
177	1336368 10172 195 62449 0.0185184 0.4998304 424 64 594 136316 73577144
178	1346540 10153 196 62406 0.018576 0.4997536 423 64 594 135722 73224308
179	1356693 10082 198 62475 0.020576 0.499944 420 64 594 133940 72165800
180	1366775 10082 198 62475 0.020576 0.499944 420 64 594 133940 72165800
181	1376857 10082 199 62476 0.020576 0.499944 420 28 576 125004 67362992
182	1386939 11108 244 61934 0.030864 0.4983472 418 0 116849 25350001 1988090179265
183	1398047 11109 244 61934 0.030864 0.4983472 418 0 113309 24241517 1832423951689
184	1409156 11522 244 61934 0.030864 0.4983472 432 7505 124889 28844200 2412176804320
185	1420678 5075 244 58429 0.030864 0.485752 199 7504 7504 1493296 11205693184
186	1425753 14630 244 61934 0.030864 0.4983472 650 0 0 0 0
187	1440383 10987 244 61934 0.030864 0.4983472 431 7504 7504 3234224 24269616896
188	1451370 11440 244 61934 0.030864 0.4983472 431 1 117385 25602471 2003608977631
189	1462810 11016 288 62478 0.041152 0.499944 414 7716 115453 25249629 1960703696053
190	1473826 10977 288 62478 0.041152 0.499944 414 1 113097 23660526 1781739895870
191	1484803 5399 288 61311 0.041152 0.4964384 212 7504 7504 1590848 11937723392
192	1490202 26 292 292 0.041152 0.041152 1 1048576 1048576 1048576 1099511627776
193	1490228 5960 294 61311 0.041152 0.4964384 225 1 120065 13507425 1083592608225
194	1496188 10770 294 61311 0.041152 0.4964384 423 0 7504 2963544 21241229760
195	1506958 10098 373 58429 0.05144 0.485752 396 0 7504 2760936 19773147200
196	1517056 9375 380 61934 0.0536272 0.4983472 416 0 0 0 0
197	1526431 9285 381 62490 0.0536272 0.4999552 377 536 536 202072 108310592
198	1535716 8531 381 62490 0.0536272 0.4999552 377 0 0 0 0
199	1544247 9662 381 62490 0.0536272 0.4999552 377 1072 1072 404144 433242368
200	1553909 5615 383 58429 0.0536272 0.485752 211 7717 120277 13503367 1089073159659
201	1559524 534 464 53585 0.0639152 0.4708608 18 0.022696 0.0369872 0.4297088 0.01048417841664
202	1560058 631 464 53585 0.0639152 0.4708608 18 0.0028454 0.023177860298 0.267463777927 0.0045290470491165
203	1560689 626 464 53585 0.0639152 0.4708608 18 0.075496657554 0.6590954 4.906946279504 1.8888698034313
204	1561315 500 464 53585 0.0639152 0.4708608 18 1 2.639227 24.088813200886 36.892006411247
205	1561815 5596 464 61311 0.0639152 0.4964384 211 1072 113632 12101272 918930333504
206	1567411 9296 464 62478 0.0639152 0.499944 413 0 0 0 0
207	1576707 4957 487 62479 0.0661024 0.499944 202 536 536 108272 58033792
208	1581664 4553 487 62479 0.0661024 0.499944 202 0 0 0 0
209	1586217 505 623 55777 0.0768816 0.4770192 17 0.022696 0.033592 0.423392 0.01074480728576
210	1586722 585 623 55777 0.0768816 0.4770192 17 0.0029068 0.023842988765 0.256491078651 0.0044307639914239
211	1587307 584 623 55777 0.0768816 0.4770192 17 0.085937058737 0.6591568 4.839184498966 1.8862624543652
212	1587891 467 623 55777 0.0768816 0.4770192 17 1 2.639534 23.101907780979 35.935886726838
213	1588358 5222 623 58429 0.0768816 0.485752 197 1072 106128 10559200 749008827008
214	1593580 3308 17357 57414 0.274406751152 0.4820544 145 0 0 0 0
215	1596888 2779 17357 57414 0.274406751152 0.4820544 103 7504 107250 9500876 887988697816
216	1599667 2637 17357 57414 0.274406751152 0.4820544 102 7504 7504 765408 5743621632
217	1602304 2735 17357 57414 0.274406751152 0.4820544 102 0 99746 8651266 745316899252
218	1605039 28 17358 17358 0.274406751152 0.274406751152 1 1 1 1 1
219	1605067 2514 17360 57417 0.274406751152 0.4820544 103 28 576 34664 18984352
220	1607581 2514 17362 57419 0.274406751152 0.4820544 103 64 594 36802 20300068
221	1610095 2798 17362 57419 0.274406751152 0.4820544 103 0 0.0047056 0.0947664 0.00022673236224
222	1612893 2511 17364 57421 0.274406751152 0.4820544 103 64 594 36802 20300068
223	1615404 2504 17365 57433 0.274464351152 0.482112 103 64 594 36802 20300068
224	1617908 2504 17549 57986 0.276464351152 0.484112 103 64 594 36802 20300068
225	1620412 2504 17549 57986 0.276464351152 0.484112 103 64 594 36802 20300068
226	1622916 3683 19454 62501 0.2917392 0.4999856 152 64 594 47888 25731872
227	1626599 3543 19454 62501 0.2917392 0.4999856 152 0 0.000424 0.0048192 2.00162304e-006
228	1630142 3682 19456 62503 0.2917392 0.4999856 152 64 594 47888 25731872
229	1633824 3661 19463 62318 0.2917968 0.4994176 151 64 594 47824 25727776
230	1637485 3590 19686 60248 0.2937968 0.4931968 148 64 594 47632 25715488
231	1641075 3590 19686 60248 0.2937968 0.4931968 148 64 594 47632 25715488
232	1644665 2349 19977 61012 0.296422308194 0.4956784 103 0 0 0 0
233	1647014 2022 19977 61012 0.296422308194 0.4956784 75 7504 105576 7083128 677876873408
234	1649036 1911 19977 61012 0.296422308194 0.4956784 74 7504 7504 555296 4166941184
235	1650947 1981 19977 61012 0.296422308194 0.4956784 74 0 98072 6437800 568985668800
236	1652928 28 19978 19978 0.296422308194 0.296422308194 1 1 1 1 1
237	1652956 1830 19980 61015 0.296422308194 0.4956784 75 28 576 26040 14317088
238	1654786 1830 19982 61017 0.296422308194 0.4956784 75 64 594 27590 15303020
239	1656616 2108 19982 61017 0.296422308194 0.4956784 75 0 0.005088 0.0927792 0.00024760836864
240	1658724 1831 19984 61019 0.296422308194 0.4956784 75 64 594 27590 15303020
241	1660555 1826 19987 61034 0.296479908194 0.495736 75 64 594 27590 15303020
242	1662381 1826 20188 61697 0.298479908194 0.497736 75 64 594 27590 15303020
243	1664207 1826 20188 61697 0.298479908194 0.497736 75 64 594 27590 15303020
244	1666033 3469 20550 62358 0.301381685189 0.4995408 152 0 0 0 0
245	1669502 2996 20550 62358 0.301381685189 0.4995408 110 7504 112433 10816573 1077625324269
246	1672498 2816 20550 62358 0.301381685189 0.4995408 109 7504 7504 817936 6137791744
247	1675314 2938 20550 62358 0.301381685189 0.4995408 109 0 104929 9909252 914779800284
248	1678252 28 20551 20551 0.301381685189 0.301381685189 1 1 1 1 1
249	1678280 2686 20553 62360 0.301381685189 0.4995408 110 28 576 38696 21306784
250	1680966 2686 20555 62362 0.301381685189 0.4995408 110 64 594 40960 22769920
251	1683652 2779 20555 62362 0.301381685189 0.4995408 110 0 0.001696 0.02552 2.49577728e-005
252	1686431 2680 20557 62364 0.301381685189 0.4995408 110 64 594 40960 22769920
253	1689111 2660 20560 62105 0.301439285189 0.4987712 109 64 594 40366 22417084
254	1691771 2610 20820 62367 0.303439285189 0.4995872 107 64 594 39178 21711412
255	1694381 2610 20820 62367 0.303439285189 0.4995872 107 64 594 39178 21711412
256	1696991 2621 21341 62191 0.3067888 0.4989728 98 68601 99154 8372267 723762062069
257	1699612 2617 21341 62191 0.3067888 0.4989728 98 0 97602 8255498 706157385316
258	1702229 3018 21341 62191 0.3067888 0.4989728 112 76106 106658 10338768 963903979264
259	1705247 1054 21341 62191 0.3067888 0.4989728 41 7504 7504 307664 2308710656
260	1706301 3822 21341 62191 0.3067888 0.4989728 168 0 0 0 0
261	1710123 2857 21341 62191 0.3067888 0.4989728 111 7504 7504 832944 6250411776
262	1712980 2968 21341 62191 0.3067888 0.4989728 111 68602 99154 9429718 810340236508
263	1715948 2330 22689 57414 0.3170768 0.4820544 87 76697 99210 7524429 654194183081
264	1718278 2330 22689 57414 0.3170768 0.4820544 87 68602 91650 7098798 583821234908
265	1720608 1137 22689 53787 0.3170768 0.471336 44 7504 7504 330176 2477640704
266	1721745 29 22693 22693 0.3170768 0.3170768 1 1048576 1048576 1048576 1099511627776
267	1721774 1531 22695 53787 0.3170768 0.471336 57 68602 98618 4765770 402898432388
268	1723305 2243 22695 53787 0.3170768 0.471336 87 0 7504 532248 3624239040
269	1725548 2363 23903 62489 0.32752 0.4999552 88 75345 105362 7974199 729000525853
270	1727911 2348 23903 62489 0.32752 0.4999552 88 0 97425 7754519 693568542807
271	1730259 2766 23903 62489 0.32752 0.4999552 102 82850 113402 9960076 979847078040
272	1733025 798 23903 55251 0.32752 0.4754784 31 7504 7504 232624 1745610496
273	1733823 3592 23903 62489 0.32752 0.4999552 158 0 0 0 0
274	1737415 2600 23903 62489 0.32752 0.4999552 101 7504 7504 757904 5687311616
275	1740015 2713 23903 62489 0.32752 0.4999552 101 75346 105898 9119322 830432859348
276	1742728 2048 23988 62191 0.3280784 0.4989728 80 0 7504 474360 3204786880
277	1744776 2183 24227 62191 0.3300432 0.4989728 96 0 0 0 0
278	1746959 1424 24230 62191 0.3300432 0.4989728 53 76698 104570 4803602 438932708660
279	1748383 1232 24269 55172 0.3301104 0.4752768 46 74105 89650 3792115 313857219429
280	1749615 1228 24269 55172 0.3301104 0.4752768 46 0 90568 3845616 328827975808
281	1750843 1606 24269 55172 0.3301104 0.4752768 60 81610 97154 5430456 493166844144
282	1752449 438 24269 55172 0.3301104 0.4752768 17 7504 7504 127568 957270272
283	1752887 2004 24269 55172 0.3301104 0.4752768 88 0 0 0 0
284	1754891 1520 24269 55172 0.3301104 0.4752768 59 7504 7504 442736 3322290944
285	1756411 1579 24269 55172 0.3301104 0.4752768 59 74106 89650 4906110 409553462220
286	1757990 2533 25005 62358 0.3357504 0.4995408 94 81880 104929 8709853 811600202925
287	1760523 2522 25005 62358 0.3357504 0.4995408 94 75346 102146 8389292 754289986360
288	1763045 1314 25005 62358 0.3357504 0.4995408 51 7504 7504 382704 2871810816
289	1764359 29 25009 25009 0.3357504 0.3357504 1 1048576 1048576 1048576 1099511627776
290	1764388 1732 25011 62358 0.3357504 0.4995408 64 75346 109114 5902720 550682410240
291	1766120 2597 25011 62358 0.3357504 0.4995408 101 0 7504 633552 4358280320
292	1768717 180 25586 53122 0.3403312 0.469656 6 0.022696 0.036584 0.1525792 0.0040322419712
293	1768897 204 25586 53122 0.3403312 0.469656 6 0.0029068 0.014495967492 0.05110742755 0.00052215554758695
294	1769101 203 25586 53122 0.3403312 0.469656 6 0.347256903724 0.6591568 2.935169413881 1.5043646342455
295	1769304 203 25586 53122 0.3403312 0.469656 6 1.403523582388 2.639534 11.791785083074 24.251061381524
296	1769507 1137 25586 53787 0.3403312 0.471336 43 1072 23584 530104 8437596224
297	1770644 1959 25586 57414 0.3403312 0.4820544 86 0 0 0 0
298	1772603 1578 25804 61012 0.3421616 0.4956784 59 82527 97536 5236847 465776363201
299	1774181 1578 25804 61012 0.3421616 0.4956784 59 74106 89650 4906110 409553462220
300	1775759 772 25804 58576 0.3421616 0.48648 30 7504 7504 225120 1689300480
301	1776531 29 25808 25808 0.3421616 0.3421616 1 1048576 1048576 1048576 1099511627776
302	1776560 1150 25810 58576 0.3421616 0.48648 43 74106 96618 3670566 315229329004
303	1777710 1513 25810 58576 0.3421616 0.48648 59 0 7504 329640 2156156480
304	1779223 1063 25864 57415 0.3425184 0.4820544 43 536 536 23048 12353728
305	1780286 977 25864 57415 0.3425184 0.4820544 43 0 0 0 0
306	1781263 1539 26023 55251 0.3439808 0.4754784 60 0 7504 329640 2156156480
307	1782802 1956 26225 62489 0.345744 0.4999552 86 0 0 0 0
308	1784758 1162 26230 55251 0.345744 0.4754784 43 81881 104393 4004891 374906007179
309	1785920 816 27283 55172 0.3532976 0.4752768 32 0 7504 127032 688073920
310	1786736 184 27304 61116 0.3533648 0.495912 6 0.0233216 0.0367408 0.1658688 0.00471472851968
311	1786920 201 27304 61116 0.3533648 0.495912 6 0.0029152 0.015778214795 0.055421296436 0.00062470613024181
312	1787121 204 27304 61116 0.3533648 0.495912 6 0.348193258729 0.6591652 2.938872907265 1.5074353764477
313	1787325 199 27304 61116 0.3533648 0.495912 6 1.408551249711 2.639576 11.810912925496 24.314760272033
314	1787524 1024 27304 62191 0.3533648 0.4989728 39 1072 21440 438984 6360446144
315	1788548 213 27384 60733 0.3539744 0.4947376 7 0.018208 0.0323104 0.1589872 0.00382237309184
316	1788761 239 27384 60733 0.3539744 0.4947376 7 0.002278 0.014518675035 0.057356474753 0.00058223956625335
317	1789000 238 27384 60733 0.3539744 0.4947376 7 0.304694653238 0.658528 3.233286827616 1.5911356297209
318	1789238 238 27384 60733 0.3539744 0.4947376 7 1.233297287987 2.63639 12.990503785217 25.644585547835
319	1789476 1321 27384 62358 0.3539744 0.4995408 50 1072 27336 710200 13079150400
320	1790797 2118 27384 62358 0.3539744 0.4995408 93 0 0 0 0
321	1792915 1002 27514 55172 0.3548384 0.4752768 44 0 0 0 0
322	1793917 775 27517 55172 0.3548384 0.4752768 29 82528 97536 2610928 235650280576
323	1794692 1066 27645 60696 0.3557376 0.4946704 43 536 536 23048 12353728
324	1795758 980 27645 60696 0.3557376 0.4946704 43 0 0 0 0
325	1796738 900 27939 62344 0.357594682486 0.4994736 39 0 0 0 0
326	1797638 925 27939 62344 0.357594682486 0.4994736 33 7504 107257 3379696 355483331104
327	1798563 835 27939 62344 0.357594682486 0.4994736 32 7504 7504 240128 1801920512
328	1799398 863 27939 62344 0.357594682486 0.4994736 32 0 99753 3036063 297402892063
329	1800261 28 27940 27940 0.357594682486 0.357594682486 1 1 1 1 1
330	1800289 816 27942 62348 0.357594682486 0.4994736 33 28 576 13640 7646368
331	1801105 816 27944 62352 0.357594682486 0.4994736 33 64 594 14302 8156188
332	1801921 799 27944 62382 0.357594682486 0.499696 30 0 0.0012048 0.0082576 5.8863744e-006
333	1802720 739 27946 62384 0.357594682486 0.499696 30 64 594 12520 7097680
334	1803459 713 27953 62375 0.357652282486 0.4996864 29 64 594 11926 6744844
335	1804172 614 28229 56053 0.359652282486 0.477856 25 64 594 9550 5333500
336	1804786 614 28229 56053 0.359652282486 0.477856 25 64 594 9550 5333500
337	1805400 155 29014 52440 0.3644592 0.4676144 5 0.0187152 0.0297744 0.1218704 0.00305953347328
338	1805555 172 29014 52440 0.3644592 0.4676144 5 0.0023394 0.012178873486 0.036618285595 0.00033227179783149
339	1805727 170 29014 52440 0.3644592 0.4676144 5 0.394151088623 0.6585894 2.588373367529 1.3836575216232
340	1805897 171 29014 52440 0.3644592 0.4676144 5 1.588783227978 2.636697 10.390111755711 22.277162195281
341	1806068 760 29014 55251 0.3644592 0.4754784 29 1072 16080 248704 2716096384
342	1806828 154 29227 57295 0.3659072 0.4816976 5 0.0237456 0.032432 0.139536 0.00396238405632
343	1806982 172 29227 57295 0.3659072 0.4816976 5 0.0029682 0.013912181299 0.042150730908 0.00043113655815144
344	1807154 170 29227 57295 0.3659072 0.4816976 5 0.395482226514 0.6592182 2.592921864795 1.3882142205198
345	1807324 171 29227 57295 0.3659072 0.4816976 5 1.595841087355 2.639841 10.413838190088 22.372247427065
346	1807495 758 29227 58576 0.3659072 0.48648 29 1072 16080 248704 2716096384
347	1808253 1319 29227 61012 0.3659072 0.4956784 58 0 0 0 0
348	1809572 718 29451 61013 0.3673136 0.4956784 29 536 536 15544 8331584
349	1810290 660 29451 61013 0.3673136 0.4956784 29 0 0 0 0
350	1810950 120 31454 54737 0.3795664 0.4741808 4 0.024728 0.0343296 0.1193424 0.0036300052352
351	1811070 134 31454 54737 0.3795664 0.4741808 4 0.003091 0.012577144141 0.031302391016 0.00029620177487084
352	1811204 131 31454 54737 0.3795664 0.4741808 4 0.450057800781 0.659341 2.200212547656 1.2345969622136
353	1811335 134 31454 54737 0.3795664 0.4741808 4 1.812808347265 2.640455 8.83215258164 19.882676566033
354	1811469 386 31454 55172 0.3795664 0.4752768 15 1072 8576 72360 429507520
355	1811855 642 32252 60314 0.3840032 0.4933888 24 89398 97439 2243127 209835185035
356	1812497 638 32252 60314 0.3840032 0.4933888 24 0 99753 2238039 217797603991
357	1813135 880 32252 60314 0.3840032 0.4933888 32 96903 104943 3248296 329988277968
358	1814015 232 32252 60314 0.3840032 0.4933888 9 7504 7504 67536 506790144
359	1814247 1048 32252 60314 0.3840032 0.4933888 46 0 0 0 0
360	1815295 800 32252 60314 0.3840032 0.4933888 31 7504 7504 232624 1745610496
361	1816095 831 32252 60314 0.3840032 0.4933888 31 89399 97439 2918769 275047590911
362	1816926 512 34027 62344 0.3938256 0.4994736 19 96000 99753 1857786 181684350754
363	1817438 512 34027 62344 0.3938256 0.4994736 19 89399 95295 1752717 161737991763
364	1817950 311 34027 62344 0.3938256 0.4994736 12 7504 7504 90048 675720192
365	1818261 29 34031 34031 0.3938256 0.3938256 1 1048576 1048576 1048576 1099511627776
366	1818290 622 34033 62344 0.3938256 0.4994736 23 89399 101191 2191785 209156895127
367	1818912 591 34033 62344 0.3938256 0.4994736 23 0 6432 71288 297351360
368	1819503 405 36599 60314 0.406952 0.4933888 16 0 4288 30552 84752320
369	1819908 501 36952 60314 0.4084256 0.4933888 22 0 0 0 0
370	1820409 410 36955 60314 0.4084256 0.4933888 15 96001 103505 1496295 149340358015
371	1820819 124 39029 61686 0.4171472 0.4977312 4 0.0212432 0.0302832 0.1039056 0.0027565868928
372	1820943 131 39029 61686 0.4171472 0.4977312 4 0.0029152 0.010930421875 0.027392646875 0.0002246463935261
373	1821074 134 39029 61686 0.4171472 0.4977312 4 0.448675627344 0.6591652 2.196713983594 1.2310285935213
374	1821208 129 39029 61686 0.4171472 0.4977312 4 1.805632931251 2.639576 8.814248581251 19.809424343133
375	1821337 285 39029 62344 0.4171472 0.4994736 11 1072 6432 41272 186455104
376	1821622 413 39029 62344 0.4171472 0.4994736 18 0 0 0 0
377	1822035 175 39423 55382 0.4184864 0.4757984 7 536 536 3752 2011072
378	1822210 161 39423 55382 0.4184864 0.4757984 7 0 0 0 0
379	1822371 72 40316 56967 0.422132872045 0.480736 3 0 0 0 0
380	1822443 112 40316 56967 0.422132872045 0.480736 4 7504 124687 381565 46696853923
381	1822555 81 40316 56967 0.422132872045 0.480736 3 7504 7504 22512 168930048
382	1822636 82 40316 56967 0.422132872045 0.480736 3 0 117183 234366 27463710978
383	1822718 28 40317 40317 0.422132872045 0.422132872045 1 1 1 1 1
384	1822746 100 40319 56971 0.422132872045 0.480736 4 28 576 688 336096
385	1822846 100 40321 56974 0.422132872045 0.480736 4 64 594 786 365124
386	1822946 104 40321 56994 0.422132872045 0.4808032 4 0 6.72e-005 6.72e-005 4.51584e-009
387	1823050 101 40323 56996 0.422132872045 0.4808032 4 64 594 786 365124
388	1823151 102 40332 57164 0.422190472045 0.4812848 4 64 594 786 365124
389	1823253 102 40844 57774 0.424190472045 0.4832848 4 64 594 786 365124
390	1823355 102 40844 57774 0.424190472045 0.4832848 4 64 594 786 365124
391	1823457 92 43037 59143 0.4327296 0.4887664 3 0.024304 0.0288096 0.0803408 0.002161997888
392	1823549 97 43037 59143 0.4327296 0.4887664 3 0.003038 0.00888041875 0.01817786875 0.00012727199547785
393	1823646 96 43037 59143 0.4327296 0.4887664 3 0.5102071125 0.659288 1.7495935625 1.031486176282
394	1823742 96 43037 59143 0.4327296 0.4887664 3 2.04970886875 2.64019 7.01655211875 16.585225028468
395	1823838 181 43037 60314 0.4327296 0.4933888 7 1072 4288 18760 58321088
396	1824019 28 52831 52831 0.4687312 0.4687312 1 105533 105533 105533 11137214089
397	1824047 23 52831 52831 0.4687312 0.4687312 1 0 0 0 0
398	1824070 56 52831 52831 0.4687312 0.4687312 2 113038 113038 226076 25555178888
399	1824126 26 52831 52831 0.4687312 0.4687312 1 7504 7504 7504 56310016
400	1824152 23 52831 52831 0.4687312 0.4687312 1 0 0 0 0
401	1824175 26 52831 52831 0.4687312 0.4687312 1 7504 7504 7504 56310016
402	1824201 28 52831 52831 0.4687312 0.4687312 1 105534 105534 105534 11137425156
403	1824229 27 56961 56961 0.480736 0.480736 1 117182 117182 117182 13731621124
404	1824256 27 56961 56961 0.480736 0.480736 1 105534 105534 105534 11137425156
405	1824283 25 56961 56961 0.480736 0.480736 1 7504 7504 7504 56310016
406	1824308 28 56965 56965 0.480736 0.480736 1 1048576 1048576 1048576 1099511627776
407	1824336 27 56967 56967 0.480736 0.480736 1 105534 105534 105534 11137425156
408	1824363 24 56967 56967 0.480736 0.480736 1 536 536 536 287296
vector 409 test1.server1.tcp "unacked bytes" ETV
vector 410 test1.server1.tcp "rcvd dupAcks" ETV
vector 411 test1.server1.tcp "sent seq" ETV
vector 412 test1.client5.tcp "measured RTT" ETV
vector 413 test1.client5.tcp "smoothed RTT" ETV
vector 414 test1.client5.tcp RTTVAR ETV
vector 415 test1.client5.tcp RTO ETV
vector 416 test1.client5.tcp cwnd ETV
[...]
228	16178682 5558 500526 544109 2.0067104 2.1414592 220 64 594 69730 37518820
229	16184240 5522 500678 544101 2.007192 2.1414496 219 64 594 69136 37165984
230	16189762 5419 501272 544125 2.009192 2.1414848 215 64 594 66760 35754640
231	16195181 5419 501272 544125 2.009192 2.1414848 215 64 594 66760 35754640
232	16200600 2993 503038 538636 2.0148688 2.1254784 126 0 0 0 0
233	16203593 2416 503038 538636 2.0148688 2.1254784 84 338200 360712 29207976 10159710975680
234	16206009 2248 503038 538636 2.0148688 2.1254784 84 7504 7504 630336 4730041344
235	16208257 2416 503038 538636 2.0148688 2.1254784 84 330696 353208 28577640 9726087713216
237	16210673 2122 503042 538639 2.0148688 2.1254784 84 40 576 25872 14001792
238	16212795 2122 503046 538641 2.0148688 2.1254784 84 64 594 27636 14991144
239	16214917 2393 503046 538641 2.0148688 2.1254784 84 0 0.005352 0.1042016 0.00031603247616
240	16217310 2122 503048 538643 2.0148688 2.1254784 84 64 594 27636 14991144
241	16219432 2120 503276 538657 2.0153504 2.125536 84 64 594 27636 14991144
242	16221552 2120 503768 539343 2.0173504 2.127536 84 64 594 27636 14991144
243	16223672 2120 503768 539343 2.0173504 2.127536 84 64 594 27636 14991144
244	16225792 3329 498896 544073 2.0013328 2.1412896 140 0 0 0 0
245	16229121 2619 498896 544073 2.0013328 2.1412896 91 362745 388473 34157907 12825965828235
246	16231740 2437 498896 544073 2.0013328 2.1412896 91 7504 7504 682864 5124211456
247	16234177 2619 498896 544073 2.0013328 2.1412896 91 355241 380969 33475043 12318448171435
249	16236796 2297 498899 544076 2.0013328 2.1412896 91 40 576 26152 14012992
250	16239093 2297 498901 544078 2.0013328 2.1412896 91 64 594 28084 15019816
251	16241390 2442 498901 544078 2.0013328 2.1412896 91 0 0.001784 0.0266432 2.788973056e-005
252	16243832 2294 498903 544080 2.0013328 2.1412896 91 64 594 28084 15019816
253	16246126 2292 498931 544087 2.0013904 2.1413472 91 64 594 28084 15019816
254	16248418 2267 498786 543906 2.0009344 2.1408912 90 64 594 28020 15015720
255	16250685 2267 498786 543906 2.0009344 2.1408912 90 64 594 28020 15015720
256	16252952 2414 499926 540054 2.0049056 2.1296976 84 331778 354290 28961184 9988809983600
257	16255366 2414 499926 540054 2.0049056 2.1296976 84 332370 354882 28718256 9822001043120
258	16257780 2414 499926 540054 2.0049056 2.1296976 84 339818 361794 29614032 10443972097328
259	16260194 1119 505113 540054 2.0217664 2.1296976 42 7504 7504 315168 2365020672
260	16261313 2995 499926 540054 2.0049056 2.1296976 126 0 0 0 0
261	16264308 2246 499926 540054 2.0049056 2.1296976 84 7504 7504 630336 4730041344
262	16266554 2414 499926 540054 2.0049056 2.1296976 84 332314 354290 28983696 10004254746416
263	16268968 2267 502063 542486 2.0116736 2.1368944 79 338266 357562 27462694 9549624041756
264	16271235 2267 502063 542486 2.0116736 2.1368944 79 331778 354290 27144710 9330313437468
265	16273502 1123 506100 540224 2.0240304 2.130152 42 7504 7504 315168 2365020672
267	16274625 1207 506100 540224 2.0240304 2.130152 42 339282 361258 14711340 5154713821768
268	16275832 2246 506100 540224 2.0240304 2.130152 84 6968 7504 607824 4404247680
269	16278078 2449 498594 540030 2.0000352 2.1296304 85 357282 379794 31325730 11548201037300
270	16280527 2449 498594 540030 2.0000352 2.1296304 85 352561 375073 30946957 11271289712901
271	16282976 2449 498594 540030 2.0000352 2.1296304 85 365322 387834 31986618 12040470330260
272	16285425 1127 503201 536224 2.0152464 2.1194032 42 7504 7504 315168 2365020672
273	16286552 3047 498594 540030 2.0000352 2.1296304 128 0 0 0 0
274	16289599 2279 498594 540030 2.0000352 2.1296304 85 7504 7504 637840 4786351360
275	16291878 2449 498594 540030 2.0000352 2.1296304 85 357818 380330 31348778 11565201518676
276	16294327 2238 505113 540054 2.0217664 2.1296976 84 6968 7504 607824 4404247680
277	16296565 1994 499926 540054 2.0049056 2.1296976 84 0 0 0 0
278	16298559 1203 505113 540054 2.0217664 2.1296976 42 339874 361850 14736204 5172146767816
279	16299762 2360 498698 544138 2.0005264 2.1414912 82 329242 350146 27753604 9396672709576
280	16302122 2360 498698 544138 2.0005264 2.1414912 82 323192 345704 27548552 9258658449984
281	16304482 2360 498698 544138 2.0005264 2.1414912 82 337282 358186 28390372 9832715561800
282	16306842 1126 498708 529831 2.0005936 2.1016896 42 7504 7504 315168 2365020672
283	16307968 2900 498698 544138 2.0005264 2.1414912 122 0 0 0 0
284	16310868 2196 498698 544138 2.0005264 2.1414912 82 7504 7504 615328 4617421312
285	16313064 2360 498698 544138 2.0005264 2.1414912 82 329778 350682 27775044 9411250280136
286	16315424 2619 498896 544073 2.0013328 2.1412896 91 354705 380433 33448779 12299126429499
287	16318043 2619 498896 544073 2.0013328 2.1412896 91 353530 376042 33218038 12130517867244
288	16320662 1125 501476 537585 2.0097504 2.1228208 42 7504 7504 315168 2365020672
290	16321787 1209 501476 537585 2.0097504 2.1228208 42 361034 383010 15624924 5814588236296
291	16322996 2250 501476 537585 2.0097504 2.1228208 84 6968 7504 607824 4404247680
292	16325246 96 506100 538494 2.0240304 2.1251216 3 0.0471744 0.0514784 0.1482656 0.00733687960576
293	16325342 111 506100 538494 2.0240304 2.1251216 3 0.047620071947 0.048291167585 0.144013602486 0.0069135454407184
294	16325453 111 506100 538494 2.0240304 2.1251216 3 0.005800745909 0.006778692764 0.018993085848 0.00012073419877487
295	16325564 72 506100 538494 2.0240304 2.1251216 3 1 1 3 3
296	16325636 1207 506100 540224 2.0240304 2.130152 42 264248 286224 11559912 3183476699200
297	16326843 1872 502063 542486 2.0116736 2.1368944 79 0 0 0 0
298	16328715 2416 503038 538636 2.0148688 2.1254784 84 330696 352672 28555128 9710691666368
299	16331131 2416 503038 538636 2.0148688 2.1254784 84 322810 344786 28185360 9460920038192
300	16333547 1125 503038 533570 2.0148688 2.113064 42 7504 7504 315168 2365020672
302	16334672 1209 503038 533570 2.0148688 2.113064 42 329778 351754 14312172 4878874363720
303	16335881 2250 503038 533570 2.0148688 2.113064 84 6968 7504 607824 4404247680
304	16338131 949 502064 542487 2.0116736 2.1368944 37 536 536 19832 10629952
305	16339080 875 502064 542487 2.0116736 2.1368944 37 0 0 0 0
306	16339955 2254 503201 536224 2.0152464 2.1194032 84 6968 7504 607824 4404247680
307	16342209 2024 498594 540030 2.0000352 2.1296304 85 0 0 0 0
308	16344233 1211 503201 536224 2.0152464 2.1194032 42 360065 382041 15584226 5784346569946
309	16345444 2252 498708 529831 2.0005936 2.1016896 84 6968 7504 607824 4404247680
310	16347696 95 505113 535206 2.0217664 2.1170976 3 0.047464 0.0493616 0.1446928 0.0069806676864
311	16347791 111 505113 535206 2.0217664 2.1170976 3 0.048121733464 0.048257251871 0.144537080722 0.0069636657410248
312	16347902 110 505113 535206 2.0217664 2.1170976 3 0.005965035408 0.007630251835 0.020370914083 0.00013971150955914
313	16348012 72 505113 535206 2.0217664 2.1170976 3 1 1 3 3
314	16348084 1203 505113 540054 2.0217664 2.1296976 42 256744 278720 11244744 3012350560576
315	16349287 95 501476 529000 2.0097504 2.0992752 3 0.044584 0.0449408 0.1344656 0.00602708406528
316	16349382 111 501476 529000 2.0097504 2.0992752 3 0.044824137795 0.044858443194 0.13452130156 0.0060319941172987
317	16349493 111 501476 529000 2.0097504 2.0992752 3 0.004093353339 0.005288167626 0.014042973037 6.644939381813e-005
318	16349604 72 501476 529000 2.0097504 2.0992752 3 1 1 3 3
319	16349676 1209 501476 537585 2.0097504 2.1228208 42 279256 301232 12190248 3539919100480
320	16350885 2164 498896 544073 2.0013328 2.1412896 91 0 0 0 0
321	16353049 1950 498698 544138 2.0005264 2.1414912 82 0 0 0 0
322	16354999 1210 498708 529831 2.0005936 2.1016896 42 330696 352672 14350728 4905186905920
323	16356209 1263 498897 544074 2.0013328 2.1412896 49 536 536 26264 14077504
324	16357472 1165 498897 544074 2.0013328 2.1412896 49 0 0 0 0
325	16358637 2975 501365 537288 2.0093264 2.1222368 126 0 0 0 0
326	16361612 2408 501365 537288 2.0093264 2.1222368 84 359177 381689 30970044 11422065301220
327	16364020 2240 501365 537288 2.0093264 2.1222368 84 7504 7504 630336 4730041344
328	16366260 2408 501365 537288 2.0093264 2.1222368 84 351673 374185 30339708 10961996922212
330	16368668 2114 501369 537291 2.0093264 2.1222368 84 40 576 25872 14001792
331	16370782 2114 501371 537293 2.0093264 2.1222368 84 64 594 27636 14991144
332	16372896 2141 501371 537293 2.0093264 2.1222368 84 0 0.000936 0.0080064 4.14790144e-006
333	16375037 2110 501373 537295 2.0093264 2.1222368 84 64 594 27636 14991144
334	16377147 2122 501524 537326 2.009808 2.1222944 84 64 594 27636 14991144
335	16379269 2122 502138 538072 2.011808 2.1242944 84 64 594 27636 14991144
336	16381391 2122 502138 538072 2.011808 2.1242944 84 64 594 27636 14991144
337	16383513 95 503201 531968 2.0152464 2.1081424 3 0.0434672 0.0464816 0.1363632 0.00620423314176
338	16383608 110 503201 531968 2.0152464 2.1081424 3 0.044995614264 0.045335492171 0.135512468916 0.006121267669021
339	16383718 109 503201 531968 2.0152464 2.1081424 3 0.005313270505 0.00652618596 0.017735617397 0.00010558666037985
340	16383827 71 503201 531968 2.0152464 2.1081424 3 1 1 3 3
341	16383898 1211 503201 536224 2.0152464 2.1194032 42 271752 293728 11875080 3359332879168
342	16385109 95 503038 531549 2.0148688 2.1067616 3 0.045768 0.0474432 0.139336 0.00647306422528
343	16385204 110 503038 531549 2.0148688 2.1067616 3 0.047663916119 0.048186045543 0.143733751512 0.0068866012152701
344	16385314 111 503038 531549 2.0148688 2.1067616 3 0.006740607615 0.008171441832 0.022364316743 0.00016774454048419
345	16385425 72 503038 531549 2.0148688 2.1067616 3 1 1 3 3
346	16385497 1209 503038 533570 2.0148688 2.113064 42 249240 271216 10929576 2845954463296
347	16386706 1996 503038 538636 2.0148688 2.1254784 84 0 0 0 0
348	16388702 1081 503831 538637 2.0176656 2.1254784 42 536 536 22512 12066432
349	16389783 997 503831 538637 2.0176656 2.1254784 42 0 0 0 0
350	16390780 93 498708 528461 2.0005936 2.0978224 3 0.0478 0.0508352 0.148064 0.00731226382848
351	16390873 111 498708 528461 2.0005936 2.0978224 3 0.048121962912 0.048285317548 0.144631933315 0.0069728123482004
352	16390984 110 498708 528461 2.0005936 2.0978224 3 0.007112588926 0.009023985536 0.024195916442 0.00019697422933479
353	16391094 72 498708 528461 2.0005936 2.0978224 3 1 1 3 3
354	16391166 1210 498708 529831 2.0005936 2.1016896 42 241736 263712 10614408 2684288407360
355	16392376 2868 498813 543998 2.0010848 2.141 100 349359 375087 36248028 13145263306212
356	16395244 2868 498813 543998 2.0010848 2.141 100 344169 372041 35785844 12812419280388
357	16398112 2868 498813 543998 2.0010848 2.141 100 357399 382591 37024156 13713929384548
358	16400980 1385 500084 543998 2.005464 2.141 52 7504 7504 390208 2928120832
359	16402365 3507 498813 543998 2.0010848 2.141 148 0 0 0 0
360	16405872 2668 498813 543998 2.0010848 2.141 100 7504 7504 750400 5631001600
361	16408540 2868 498813 543998 2.0010848 2.141 100 349895 375087 36273756 13163901852900
362	16411408 2408 501365 537288 2.0093264 2.1222368 84 351673 373649 30317196 10945656406916
363	16413816 2408 501365 537288 2.0093264 2.1222368 84 345607 367583 30100308 10789658411588
364	16416224 1127 501365 531159 2.0093264 2.1055984 42 7504 7504 315168 2365020672
366	16417351 1211 501365 531159 2.0093264 2.1055984 42 352575 374551 15269646 5553251068666
367	16418562 2254 501365 531159 2.0093264 2.1055984 84 6968 7504 607824 4404247680
368	16420816 2770 500084 543998 2.005464 2.141 104 6968 7504 752544 5452878080
369	16423586 2368 498813 543998 2.0010848 2.141 100 0 0 0 0
370	16425954 1489 500084 543998 2.005464 2.141 52 351673 379009 18997732 6944015504660
371	16427443 95 501365 528634 2.0093264 2.0982256 3 0.0444496 0.0449408 0.13384 0.00597120938496
372	16427538 109 501365 528634 2.0093264 2.0982256 3 0.044727979329 0.04481319749 0.134308924623 0.0060129660475757
373	16427647 110 501365 528634 2.0093264 2.0982256 3 0.005454875243 0.007020850013 0.018664418704 0.00011734792541505
374	16427757 71 501365 528634 2.0093264 2.0982256 3 1 1 3 3
375	16427828 1211 501365 531159 2.0093264 2.1055984 42 256744 278720 11244744 3012350560576
376	16429039 1988 501365 537288 2.0093264 2.1222368 84 0 0 0 0
377	16431027 1071 505565 537289 2.0225984 2.1222368 42 536 536 22512 12066432
378	16432098 987 505565 537289 2.0225984 2.1222368 42 0 0 0 0
379	16433085 2996 508147 542185 2.028896 2.1358864 126 0 0 0 0
380	16436081 2416 508147 542185 2.028896 2.1358864 84 357847 380359 30858324 11339833571780
381	16438497 2248 508147 542185 2.028896 2.1358864 84 7504 7504 630336 4730041344
382	16440745 2416 508147 542185 2.028896 2.1358864 84 350343 372855 30227988 10881441886532
384	16443161 2122 508151 542188 2.028896 2.1358864 84 40 576 25872 14001792
385	16445283 2122 508153 542190 2.028896 2.1358864 84 64 594 27636 14991144
386	16447405 2363 508153 542190 2.028896 2.1358864 84 0 0.0033872 0.0689424 0.00013330759424
387	16449768 2122 508155 542192 2.028896 2.1358864 84 64 594 27636 14991144
388	16451890 2122 508427 542206 2.0293776 2.135944 84 64 594 27636 14991144
389	16454012 2122 508997 542898 2.0313776 2.137944 84 64 594 27636 14991144
390	16456134 2122 508997 542898 2.0313776 2.137944 84 64 594 27636 14991144
391	16458256 126 500084 541675 2.005464 2.1345216 4 0.0372368 0.0465024 0.1744896 0.00766687648256
392	16458382 147 500084 541675 2.005464 2.1345216 4 0.044190038512 0.045183358299 0.179016547136 0.0080124771717696
393	16458529 147 500084 541675 2.005464 2.1345216 4 0.006580520257 0.008071911476 0.02892490317 0.00021031655883527
394	16458676 95 500084 541675 2.005464 2.1345216 4 1 1 4 4
395	16458771 1489 500084 543998 2.005464 2.141 52 249240 276576 13671216 3597637154176
396	16460260 2412 501194 535778 2.0087936 2.1183952 84 338694 361206 29542128 10393418889392
397	16462672 2412 501194 535778 2.0087936 2.1183952 84 342839 365351 29597652 10432510283972
398	16465084 2412 501194 535778 2.0087936 2.1183952 84 346734 368710 30194976 10857611196656
399	16467496 1126 505962 535778 2.0236432 2.1183952 42 7504 7504 315168 2365020672
400	16468622 2984 501194 535778 2.0087936 2.1183952 126 0 0 0 0
401	16471606 2244 501194 535778 2.0087936 2.1183952 84 7504 7504 630336 4730041344
402	16473850 2412 501194 535778 2.0087936 2.1183952 84 339230 361206 29564640 10409175038192
403	16476262 2416 508147 542185 2.028896 2.1358864 84 350343 372319 30205476 10865161253156
404	16478678 2416 508147 542185 2.028896 2.1358864 84 339230 361206 29564640 10409175038192
405	16481094 1122 508147 538482 2.028896 2.12508 42 7504 7504 315168 2365020672
407	16482216 1206 508147 538482 2.028896 2.12508 42 346198 368174 15001812 5360209981000
408	16483422 2244 508147 538482 2.028896 2.12508 84 6968 7504 607824 4404247680
409	16485666 2252 505962 535778 2.0236432 2.1183952 84 6968 7504 607824 4404247680
410	16487918 1992 501194 535778 2.0087936 2.1183952 84 0 0 0 0
411	16489910 1210 505962 535778 2.0236432 2.1183952 42 350343 372319 15175902 5485296605530
412	16491120 91 508147 537161 2.028896 2.1219472 3 0.0463472 0.0469056 0.1399568 0.0065294618752
413	16491211 107 508147 537161 2.028896 2.1219472 3 0.045050031548 0.045393080404 0.135699889557 0.0061382130102282
414	16491318 106 508147 537161 2.028896 2.1219472 3 0.007772029631 0.009736913021 0.026235487602 0.00023136450652803
415	16491424 68 508147 537161 2.028896 2.1219472 3 1 1 3 3
416	16491492 1206 508147 538482 2.028896 2.12508 42 234232 256208 10299240 2527352392768
417	16492698 1996 508147 542185 2.028896 2.1358864 84 0 0 0 0
418	16494694 1084 510001 542186 2.0356896 2.1358864 42 536 536 22512 12066432
419	16495778 1000 510001 542186 2.0356896 2.1358864 42 0 0 0 0
420	16496778 95 505962 534705 2.0236432 2.116136 3 0.0461456 0.0468384 0.1393312 0.00647131506176
421	16496873 110 505962 534705 2.0236432 2.116136 3 0.045091082771 0.045360285247 0.135699465443 0.0061381515437327
422	16496983 110 505962 534705 2.0236432 2.116136 3 0.009079969596 0.011533575774 0.030862438826 0.00032050903507132
423	16497093 71 505962 534705 2.0236432 2.116136 3 1 1 3 3
424	16497164 1210 505962 535778 2.0236432 2.1183952 42 226728 248704 9984072 2375146419520
425	16498374 1825 498575 544154 2 2.1415104 77 0 0 0 0
426	16500199 1776 498575 544154 2 2.1415104 62 7504 522927 31635907 16399837406429
427	16501975 1627 498575 544154 2 2.1415104 61 7504 7504 457744 3434910976
428	16503602 1744 498575 544154 2 2.1415104 61 0 515423 30663812 15671643053756
429	16505346 24 500990 500990 2.0082304 2.0082304 1 1 1 1 1
430	16505370 1590 500992 543941 2.0082304 2.1409424 63 28 576 18056 9675424
431	16506960 1590 500994 543943 2.0082304 2.1409424 63 64 594 19402 10371508
432	16508550 1701 500994 543943 2.0082304 2.1409424 63 0 0.0059152 0.0581488 0.00020298150656
433	16510251 1587 500996 543945 2.0082304 2.1409424 63 64 594 19402 10371508
434	16511838 1581 501035 543995 2.008288 2.141 63 64 594 19402 10371508
435	16513419 1560 501644 544163 2.010288 2.1415264 62 64 594 19338 10367412
436	16514979 1560 501644 544163 2.010288 2.1415264 62 64 594 19338 10367412
437	16516539 1410 507658 543937 2.0273856 2.1409424 49 500000 516617 24931528 12686743572704
438	16517949 1405 507658 543937 2.0273856 2.1409424 49 0 514887 24484632 12489787334368
439	16519354 1813 507658 543937 2.0273856 2.1409424 63 507505 524657 32556519 16826077064399
440	16521167 456 507658 540905 2.0273856 2.1320544 17 7504 7504 127568 957270272
441	16521623 2234 507658 543937 2.0273856 2.1409424 94 0 0 0 0
442	16523857 1660 507658 543937 2.0273856 2.1409424 62 7504 7504 465248 3491220992
443	16525517 1784 507658 543937 2.0273856 2.1409424 62 500001 517153 31583766 16091015358254
444	16527301 1326 510095 544154 2.0361392 2.1415104 46 506846 514887 23529361 12035838291441
445	16528627 1326 510095 544154 2.0361392 2.1415104 46 500001 515545 23331830 11835108998270
446	16529953 805 510095 543544 2.0361392 2.1397472 30 7504 7504 225120 1689300480
447	16530758 30 510099 510099 2.0361392 2.0361392 1 1048576 1048576 1048576 1099511627776
448	16530788 1238 510101 543544 2.0361392 2.1397472 43 500001 522513 21984051 11241402436219
449	16532026 1578 510101 543544 2.0361392 2.1397472 59 0 7504 329640 2156156480
450	16533604 850 512116 540905 2.0452592 2.1320544 32 0 7504 127032 688073920
451	16534454 1117 512312 543937 2.0462416 2.1409424 47 0 0 0 0
452	16535571 824 512313 543938 2.0462416 2.1409424 32 536 536 17152 9193472
453	16536395 760 512313 543938 2.0462416 2.1409424 32 0 0 0 0
454	16537155 856 512313 543938 2.0462416 2.1409424 32 1072 1072 34304 36773888
455	16538011 835 512315 540905 2.0462416 2.1320544 29 506847 521855 14916179 7672734795709
456	16538846 158 514912 539525 2.054472 2.1280464 5 0.0181568 0.0189872 0.0919072 0.00168986854912
457	16539004 173 514912 539525 2.054472 2.1280464 5 0.0022916 0.008941048926 0.02931985752 0.00019946466539672
458	16539177 171 514912 539525 2.054472 2.1280464 5 0.391393553711 0.6585416 2.58177351543 1.3778363349798
459	16539348 170 514912 539525 2.054472 2.1280464 5 1.57451526377 2.636458 10.35641391924 22.15781962317
460	16539518 790 514912 543544 2.054472 2.1397472 29 1072 16080 248704 2716096384
461	16540308 1072 514912 544154 2.054472 2.1415104 45 0 0 0 0
462	16541380 413 515595 544155 2.0566144 2.1415104 16 536 536 8576 4596736
463	16541793 381 515595 544155 2.0566144 2.1415104 16 0 0 0 0
464	16542174 126 518053 540707 2.0649568 2.131584 4 0.0187152 0.0264016 0.0853424 0.00185639365376
465	16542300 139 518053 540707 2.0649568 2.131584 4 0.0023394 0.008994068359 0.022383921484 0.00014935116568309
466	16542439 137 518053 540707 2.0649568 2.131584 4 0.447096091406 0.6585894 2.192279907031 1.226452805052
467	16542576 138 518053 540707 2.0649568 2.131584 4 1.797378433983 2.636697 8.791503549608 19.715366353361
468	16542714 402 518053 540905 2.0649568 2.1320544 15 1072 8576 72360 429507520

