version 2
run General-0-20130904-14:51:50-4396
attr configname General
attr datetime 20130904-14:51:50
attr experiment General
attr inifile grid-ete-flow-generator.ini
attr iterationvars ""
attr iterationvars2 $repetition=0
attr measurement ""
attr network arppathbridgesunidireccional.src.topologies.gridLoadGenerator.gridfullhost
attr processid 4396
attr repetition 0
attr replication #0
attr resultdir results
attr runnumber 0
attr seedset 0

scalar gridfullhost.switch[0].relayUnit 	"processed frames" 	21836
scalar gridfullhost.switch[0].relayUnit 	"dropped frames" 	0
scalar gridfullhost.switch[0].relayUnit 	"processed frames" 	21836
scalar gridfullhost.switch[0].relayUnit 	"dropped frames" 	0
scalar gridfullhost.switch[0].relayUnit 	"retx frames" 	0
scalar gridfullhost.switch[0].relayUnit 	"ARP requests rcvd" 	0
scalar gridfullhost.switch[0].relayUnit 	"ARP replies rcvd" 	0
scalar gridfullhost.switch[0].relayUnit 	"number of reparations" 	0
scalar gridfullhost.switch[0].mac[0] 	"simulated time" 	5.227951348467
scalar gridfullhost.switch[0].mac[0] 	full-duplex 	1
scalar gridfullhost.switch[0].mac[0] 	"frames/sec sent" 	2042.4826644822
scalar gridfullhost.switch[0].mac[0] 	"frames/sec rcvd" 	1205.2522259695
scalar gridfullhost.switch[0].mac[0] 	"bits/sec sent" 	12226871.242546
scalar gridfullhost.switch[0].mac[0] 	"bits/sec rcvd" 	2124188.0920059
scalar gridfullhost.switch[0].mac[0] 	"rx channel idle (%)" 	97.798675765532
scalar gridfullhost.switch[0].mac[0] 	"rx channel utilization (%)" 	2.201324234468
scalar gridfullhost.switch[0].mac[0] 	"rx channel collision (%)" 	0
scalar gridfullhost.switch[0].mac[0] 	collisions 	0
scalar gridfullhost.switch[0].mac[0] 	backoffs 	0
scalar gridfullhost.switch[0].mac[0] 	"average latency" 	0
scalar gridfullhost.switch[0].mac[0] 	"max latency" 	0
scalar gridfullhost.switch[0].mac[0] 	"min latency" 	100
scalar gridfullhost.switch[0].mac[0] 	"average processing time" 	0
scalar gridfullhost.switch[0].mac[0] 	"max processing time" 	0
scalar gridfullhost.switch[0].mac[0] 	"min processing time" 	100
scalar gridfullhost.switch[0].mac[0] 	"ARP requests rcvd" 	0
scalar gridfullhost.switch[0].mac[0] 	backoff:count 	0
attr interpolationmode  none
attr title  "backoff, count"
scalar gridfullhost.switch[0].mac[0] 	collision:count 	0
attr interpolationmode  none
attr title  "collision, count"
scalar gridfullhost.switch[0].mac[0] 	droppedPkNotForUs:count 	0
attr interpolationmode  none
attr source  dropPkNotForUs
attr title  "packets dropped/not for us, count"
scalar gridfullhost.switch[0].mac[0] 	droppedPkNotForUs:sum(packetBytes) 	0
attr interpolationmode  none
attr source  dropPkNotForUs
attr title  "packets dropped/not for us, sum(packetBytes)"
scalar gridfullhost.switch[0].mac[0] 	droppedPkBitError:count 	0
attr interpolationmode  none
attr source  dropPkBitError
attr title  "packets dropped/bit error, count"
scalar gridfullhost.switch[0].mac[0] 	droppedPkBitError:sum(packetBytes) 	0
attr interpolationmode  none
attr source  dropPkBitError
attr title  "packets dropped/bit error, sum(packetBytes)"
scalar gridfullhost.switch[0].mac[0] 	droppedPkIfaceDown:count 	0
attr interpolationmode  none
attr source  dropPkIfaceDown
attr title  "packets dropped/interface down, count"
scalar gridfullhost.switch[0].mac[0] 	droppedPkIfaceDown:sum(packetBytes) 	0
attr interpolationmode  none
attr source  dropPkIfaceDown
attr title  "packets dropped/interface down, sum(packetBytes)"
scalar gridfullhost.switch[0].mac[0] 	rxPkFromHL:count 	10680
attr interpolationmode  none
attr source  rxPkFromHL
attr title  "packet bytes from higher layer, count"
scalar gridfullhost.switch[0].mac[0] 	rxPkFromHL:sum(packetBytes) 	7991770
attr interpolationmode  none
attr source  rxPkFromHL
attr title  "packet bytes from higher layer, sum(packetBytes)"
scalar gridfullhost.switch[0].mac[0] 	rxPausePkUnits:count 	0
attr interpolationmode  none
attr title  "pause units received, count"
scalar gridfullhost.switch[0].mac[0] 	rxPausePkUnits:sum 	0
attr interpolationmode  none
attr title  "pause units received, sum"
scalar gridfullhost.switch[0].mac[0] 	txPausePkUnits:count 	0
attr interpolationmode  none
attr title  "pause units sent, count"
scalar gridfullhost.switch[0].mac[0] 	txPausePkUnits:sum 	0
attr interpolationmode  none
attr title  "pause units sent, sum"
scalar gridfullhost.switch[0].mac[0] 	passedUpPk:count 	6301
attr interpolationmode  none
attr source  packetSentToUpper
attr title  "packets passed to higher layer, count"
scalar gridfullhost.switch[0].mac[0] 	passedUpPk:sum(packetBytes) 	1388144
attr interpolationmode  none
attr source  packetSentToUpper
attr title  "packets passed to higher layer, sum(packetBytes)"
scalar gridfullhost.switch[0].mac[0] 	rxPkOk:count 	6301
attr interpolationmode  none
attr source  rxPkOk
attr title  "packets received OK, count"
scalar gridfullhost.switch[0].mac[0] 	rxPkOk:sum(packetBytes) 	1388144
attr interpolationmode  none
attr source  rxPkOk
attr title  "packets received OK, sum(packetBytes)"
scalar gridfullhost.switch[0].mac[0] 	txPk:count 	10678
attr interpolationmode  none
attr source  txPk
attr title  "packets transmitted, count"
scalar gridfullhost.switch[0].mac[0] 	txPk:sum(packetBytes) 	7990186
attr interpolationmode  none
attr source  txPk
attr title  "packets transmitted, sum(packetBytes)"
scalar gridfullhost.switch[0].mac[1] 	"simulated time" 	5.227951348467
scalar gridfullhost.switch[0].mac[1] 	full-duplex 	1
scalar gridfullhost.switch[0].mac[1] 	"frames/sec sent" 	1.7215156377917
scalar gridfullhost.switch[0].mac[1] 	"frames/sec rcvd" 	0
scalar gridfullhost.switch[0].mac[1] 	"bits/sec sent" 	881.41600654934
scalar gridfullhost.switch[0].mac[1] 	"bits/sec rcvd" 	0
scalar gridfullhost.switch[0].mac[1] 	"rx channel idle (%)" 	100
scalar gridfullhost.switch[0].mac[1] 	"rx channel utilization (%)" 	0
scalar gridfullhost.switch[0].mac[1] 	"rx channel collision (%)" 	0
scalar gridfullhost.switch[0].mac[1] 	collisions 	0
scalar gridfullhost.switch[0].mac[1] 	backoffs 	0
scalar gridfullhost.switch[0].mac[1] 	"average latency" 	0
scalar gridfullhost.switch[0].mac[1] 	"max latency" 	0
scalar gridfullhost.switch[0].mac[1] 	"min latency" 	100
scalar gridfullhost.switch[0].mac[1] 	"average processing time" 	0
scalar gridfullhost.switch[0].mac[1] 	"max processing time" 	0
scalar gridfullhost.switch[0].mac[1] 	"min processing time" 	100
scalar gridfullhost.switch[0].mac[1] 	"ARP requests rcvd" 	0
scalar gridfullhost.switch[0].mac[1] 	backoff:count 	0
attr interpolationmode  none
attr title  "backoff, count"
scalar gridfullhost.switch[0].mac[1] 	collision:count 	0
attr interpolationmode  none
attr title  "collision, count"
scalar gridfullhost.switch[0].mac[1] 	droppedPkNotForUs:count 	0
attr interpolationmode  none
attr source  dropPkNotForUs
attr title  "packets dropped/not for us, count"
scalar gridfullhost.switch[0].mac[1] 	droppedPkNotForUs:sum(packetBytes) 	0
attr interpolationmode  none
attr source  dropPkNotForUs
attr title  "packets dropped/not for us, sum(packetBytes)"
scalar gridfullhost.switch[0].mac[1] 	droppedPkBitError:count 	0
attr interpolationmode  none
attr source  dropPkBitError
attr title  "packets dropped/bit error, count"
scalar gridfullhost.switch[0].mac[1] 	droppedPkBitError:sum(packetBytes) 	0
attr interpolationmode  none
attr source  dropPkBitError
attr title  "packets dropped/bit error, sum(packetBytes)"
scalar gridfullhost.switch[0].mac[1] 	droppedPkIfaceDown:count 	0
attr interpolationmode  none
attr source  dropPkIfaceDown
attr title  "packets dropped/interface down, count"
scalar gridfullhost.switch[0].mac[1] 	droppedPkIfaceDown:sum(packetBytes) 	0
attr interpolationmode  none
attr source  dropPkIfaceDown
attr title  "packets dropped/interface down, sum(packetBytes)"
scalar gridfullhost.switch[0].mac[1] 	rxPkFromHL:count 	9
attr interpolationmode  none
attr source  rxPkFromHL
attr title  "packet bytes from higher layer, count"
scalar gridfullhost.switch[0].mac[1] 	rxPkFromHL:sum(packetBytes) 	576
attr interpolationmode  none
attr source  rxPkFromHL
attr title  "packet bytes from higher layer, sum(packetBytes)"
scalar gridfullhost.switch[0].mac[1] 	rxPausePkUnits:count 	0
attr interpolationmode  none
attr title  "pause units received, count"
scalar gridfullhost.switch[0].mac[1] 	rxPausePkUnits:sum 	0
attr interpolationmode  none
attr title  "pause units received, sum"
scalar gridfullhost.switch[0].mac[1] 	txPausePkUnits:count 	0
attr interpolationmode  none
attr title  "pause units sent, count"
scalar gridfullhost.switch[0].mac[1] 	txPausePkUnits:sum 	0
attr interpolationmode  none
attr title  "pause units sent, sum"
scalar gridfullhost.switch[0].mac[1] 	passedUpPk:count 	0
attr interpolationmode  none
attr source  packetSentToUpper
attr title  "packets passed to higher layer, count"
scalar gridfullhost.switch[0].mac[1] 	passedUpPk:sum(packetBytes) 	0
attr interpolationmode  none
attr source  packetSentToUpper
attr title  "packets passed to higher layer, sum(packetBytes)"
scalar gridfullhost.switch[0].mac[1] 	rxPkOk:count 	0
attr interpolationmode  none
attr source  rxPkOk
attr title  "packets received OK, count"
scalar gridfullhost.switch[0].mac[1] 	rxPkOk:sum(packetBytes) 	0
attr interpolationmode  none
attr source  rxPkOk
attr title  "packets received OK, sum(packetBytes)"
scalar gridfullhost.switch[0].mac[1] 	txPk:count 	9
attr interpolationmode  none
attr source  txPk
attr title  "packets transmitted, count"
scalar gridfullhost.switch[0].mac[1] 	txPk:sum(packetBytes) 	576
attr interpolationmode  none
attr source  txPk
attr title  "packets transmitted, sum(packetBytes)"
scalar gridfullhost.switch[0].mac[2] 	"simulated time" 	5.227951348467
scalar gridfullhost.switch[0].mac[2] 	full-duplex 	1
scalar gridfullhost.switch[0].mac[2] 	"frames/sec sent" 	1622.432848861
scalar gridfullhost.switch[0].mac[2] 	"frames/sec rcvd" 	2554.1553679369
scalar gridfullhost.switch[0].mac[2] 	"bits/sec sent" 	3601640.2496786
scalar gridfullhost.switch[0].mac[2] 	"bits/sec rcvd" 	14852453.441972
scalar gridfullhost.switch[0].mac[2] 	"rx channel idle (%)" 	84.98408061448
scalar gridfullhost.switch[0].mac[2] 	"rx channel utilization (%)" 	15.01591938552
scalar gridfullhost.switch[0].mac[2] 	"rx channel collision (%)" 	0
scalar gridfullhost.switch[0].mac[2] 	collisions 	0
scalar gridfullhost.switch[0].mac[2] 	backoffs 	0
scalar gridfullhost.switch[0].mac[2] 	"average latency" 	0
scalar gridfullhost.switch[0].mac[2] 	"max latency" 	0
scalar gridfullhost.switch[0].mac[2] 	"min latency" 	100
scalar gridfullhost.switch[0].mac[2] 	"average processing time" 	0
scalar gridfullhost.switch[0].mac[2] 	"max processing time" 	0
scalar gridfullhost.switch[0].mac[2] 	"min processing time" 	100
scalar gridfullhost.switch[0].mac[2] 	"ARP requests rcvd" 	9
scalar gridfullhost.switch[0].mac[2] 	backoff:count 	0
attr interpolationmode  none
attr title  "backoff, count"
scalar gridfullhost.switch[0].mac[2] 	collision:count 	0
attr interpolationmode  none
attr title  "collision, count"
scalar gridfullhost.switch[0].mac[2] 	droppedPkNotForUs:count 	0
attr interpolationmode  none
attr source  dropPkNotForUs
attr title  "packets dropped/not for us, count"
scalar gridfullhost.switch[0].mac[2] 	droppedPkNotForUs:sum(packetBytes) 	0
attr interpolationmode  none
attr source  dropPkNotForUs
attr title  "packets dropped/not for us, sum(packetBytes)"
scalar gridfullhost.switch[0].mac[2] 	droppedPkBitError:count 	0
attr interpolationmode  none
attr source  dropPkBitError
attr title  "packets dropped/bit error, count"
scalar gridfullhost.switch[0].mac[2] 	droppedPkBitError:sum(packetBytes) 	0
attr interpolationmode  none
attr source  dropPkBitError
attr title  "packets dropped/bit error, sum(packetBytes)"
scalar gridfullhost.switch[0].mac[2] 	droppedPkIfaceDown:count 	0
attr interpolationmode  none
attr source  dropPkIfaceDown
attr title  "packets dropped/interface down, count"
scalar gridfullhost.switch[0].mac[2] 	droppedPkIfaceDown:sum(packetBytes) 	0
attr interpolationmode  none
attr source  dropPkIfaceDown
attr title  "packets dropped/interface down, sum(packetBytes)"
scalar gridfullhost.switch[0].mac[2] 	rxPkFromHL:count 	8483
attr interpolationmode  none
attr source  rxPkFromHL
attr title  "packet bytes from higher layer, count"
scalar gridfullhost.switch[0].mac[2] 	rxPkFromHL:sum(packetBytes) 	2355168
attr interpolationmode  none
attr source  rxPkFromHL
attr title  "packet bytes from higher layer, sum(packetBytes)"
scalar gridfullhost.switch[0].mac[2] 	rxPausePkUnits:count 	0
attr interpolationmode  none
attr title  "pause units received, count"
scalar gridfullhost.switch[0].mac[2] 	rxPausePkUnits:sum 	0
attr interpolationmode  none
attr title  "pause units received, sum"
scalar gridfullhost.switch[0].mac[2] 	txPausePkUnits:count 	0
attr interpolationmode  none
attr title  "pause units sent, count"
scalar gridfullhost.switch[0].mac[2] 	txPausePkUnits:sum 	0
attr interpolationmode  none
attr title  "pause units sent, sum"
scalar gridfullhost.switch[0].mac[2] 	passedUpPk:count 	13353
attr interpolationmode  none
attr source  packetSentToUpper
attr title  "packets passed to higher layer, count"
scalar gridfullhost.switch[0].mac[2] 	passedUpPk:sum(packetBytes) 	9705988
attr interpolationmode  none
attr source  packetSentToUpper
attr title  "packets passed to higher layer, sum(packetBytes)"
scalar gridfullhost.switch[0].mac[2] 	rxPkOk:count 	13353
attr interpolationmode  none
attr source  rxPkOk
attr title  "packets received OK, count"
scalar gridfullhost.switch[0].mac[2] 	rxPkOk:sum(packetBytes) 	9705988
attr interpolationmode  none
attr source  rxPkOk
attr title  "packets received OK, sum(packetBytes)"
scalar gridfullhost.switch[0].mac[2] 	txPk:count 	8482
attr interpolationmode  none
attr source  txPk
attr title  "packets transmitted, count"
scalar gridfullhost.switch[0].mac[2] 	txPk:sum(packetBytes) 	2353650
attr interpolationmode  none
attr source  txPk
attr title  "packets transmitted, sum(packetBytes)"
scalar gridfullhost.switch[0].mac[3] 	"simulated time" 	5.227951348467
scalar gridfullhost.switch[0].mac[3] 	full-duplex 	1
scalar gridfullhost.switch[0].mac[3] 	"frames/sec sent" 	214.99817520865
scalar gridfullhost.switch[0].mac[3] 	"frames/sec rcvd" 	207.53827411155
scalar gridfullhost.switch[0].mac[3] 	"bits/sec sent" 	966555.28393196
scalar gridfullhost.switch[0].mac[3] 	"bits/sec rcvd" 	894141.45014389
scalar gridfullhost.switch[0].mac[3] 	"rx channel idle (%)" 	99.092576100313
scalar gridfullhost.switch[0].mac[3] 	"rx channel utilization (%)" 	0.90742389968703
scalar gridfullhost.switch[0].mac[3] 	"rx channel collision (%)" 	0
scalar gridfullhost.switch[0].mac[3] 	collisions 	0
scalar gridfullhost.switch[0].mac[3] 	backoffs 	0
scalar gridfullhost.switch[0].mac[3] 	"average latency" 	0
scalar gridfullhost.switch[0].mac[3] 	"max latency" 	0
scalar gridfullhost.switch[0].mac[3] 	"min latency" 	100
scalar gridfullhost.switch[0].mac[3] 	"average processing time" 	0
scalar gridfullhost.switch[0].mac[3] 	"max processing time" 	0
scalar gridfullhost.switch[0].mac[3] 	"min processing time" 	100
scalar gridfullhost.switch[0].mac[3] 	"ARP requests rcvd" 	0
scalar gridfullhost.switch[0].mac[3] 	backoff:count 	0
attr interpolationmode  none
attr title  "backoff, count"
scalar gridfullhost.switch[0].mac[3] 	collision:count 	0
attr interpolationmode  none
attr title  "collision, count"
scalar gridfullhost.switch[0].mac[3] 	droppedPkNotForUs:count 	0
attr interpolationmode  none
attr source  dropPkNotForUs
attr title  "packets dropped/not for us, count"
scalar gridfullhost.switch[0].mac[3] 	droppedPkNotForUs:sum(packetBytes) 	0
attr interpolationmode  none
attr source  dropPkNotForUs
attr title  "packets dropped/not for us, sum(packetBytes)"
scalar gridfullhost.switch[0].mac[3] 	droppedPkBitError:count 	0
attr interpolationmode  none
attr source  dropPkBitError
attr title  "packets dropped/bit error, count"
scalar gridfullhost.switch[0].mac[3] 	droppedPkBitError:sum(packetBytes) 	0
attr interpolationmode  none
attr source  dropPkBitError
attr title  "packets dropped/bit error, sum(packetBytes)"
scalar gridfullhost.switch[0].mac[3] 	droppedPkIfaceDown:count 	0
attr interpolationmode  none
attr source  dropPkIfaceDown
attr title  "packets dropped/interface down, count"
scalar gridfullhost.switch[0].mac[3] 	droppedPkIfaceDown:sum(packetBytes) 	0
attr interpolationmode  none
attr source  dropPkIfaceDown
attr title  "packets dropped/interface down, sum(packetBytes)"
scalar gridfullhost.switch[0].mac[3] 	rxPkFromHL:count 	1124
attr interpolationmode  none
attr source  rxPkFromHL
attr title  "packet bytes from higher layer, count"
scalar gridfullhost.switch[0].mac[3] 	rxPkFromHL:sum(packetBytes) 	631638
attr interpolationmode  none
attr source  rxPkFromHL
attr title  "packet bytes from higher layer, sum(packetBytes)"
scalar gridfullhost.switch[0].mac[3] 	rxPausePkUnits:count 	0
attr interpolationmode  none
attr title  "pause units received, count"
scalar gridfullhost.switch[0].mac[3] 	rxPausePkUnits:sum 	0
attr interpolationmode  none
attr title  "pause units received, sum"
scalar gridfullhost.switch[0].mac[3] 	txPausePkUnits:count 	0
attr interpolationmode  none
attr title  "pause units sent, count"
scalar gridfullhost.switch[0].mac[3] 	txPausePkUnits:sum 	0
attr interpolationmode  none
attr title  "pause units sent, sum"
scalar gridfullhost.switch[0].mac[3] 	passedUpPk:count 	1085
attr interpolationmode  none
attr source  packetSentToUpper
attr title  "packets passed to higher layer, count"
scalar gridfullhost.switch[0].mac[3] 	passedUpPk:sum(packetBytes) 	584316
attr interpolationmode  none
attr source  packetSentToUpper
attr title  "packets passed to higher layer, sum(packetBytes)"
scalar gridfullhost.switch[0].mac[3] 	rxPkOk:count 	1085
attr interpolationmode  none
attr source  rxPkOk
attr title  "packets received OK, count"
scalar gridfullhost.switch[0].mac[3] 	rxPkOk:sum(packetBytes) 	584316
attr interpolationmode  none
attr source  rxPkOk
attr title  "packets received OK, sum(packetBytes)"
scalar gridfullhost.switch[0].mac[3] 	txPk:count 	1124
attr interpolationmode  none
attr source  txPk
attr title  "packets transmitted, count"
scalar gridfullhost.switch[0].mac[3] 	txPk:sum(packetBytes) 	631638
attr interpolationmode  none
attr source  txPk
attr title  "packets transmitted, sum(packetBytes)"
scalar gridfullhost.switch[0].mac[4] 	"simulated time" 	5.227951348467
scalar gridfullhost.switch[0].mac[4] 	full-duplex 	1
scalar gridfullhost.switch[0].mac[4] 	"frames/sec sent" 	57.192575077746
scalar gridfullhost.switch[0].mac[4] 	"frames/sec rcvd" 	27.926809235287
scalar gridfullhost.switch[0].mac[4] 	"bits/sec sent" 	352346.0486181
scalar gridfullhost.switch[0].mac[4] 	"bits/sec rcvd" 	16517.368706065
scalar gridfullhost.switch[0].mac[4] 	"rx channel idle (%)" 	99.981695315503
scalar gridfullhost.switch[0].mac[4] 	"rx channel utilization (%)" 	0.018304684497124
scalar gridfullhost.switch[0].mac[4] 	"rx channel collision (%)" 	0
scalar gridfullhost.switch[0].mac[4] 	collisions 	0
scalar gridfullhost.switch[0].mac[4] 	backoffs 	0
scalar gridfullhost.switch[0].mac[4] 	"average latency" 	0
scalar gridfullhost.switch[0].mac[4] 	"max latency" 	0
scalar gridfullhost.switch[0].mac[4] 	"min latency" 	100
scalar gridfullhost.switch[0].mac[4] 	"average processing time" 	0
scalar gridfullhost.switch[0].mac[4] 	"max processing time" 	0
scalar gridfullhost.switch[0].mac[4] 	"min processing time" 	100
scalar gridfullhost.switch[0].mac[4] 	"ARP requests rcvd" 	0
scalar gridfullhost.switch[0].mac[4] 	backoff:count 	0
attr interpolationmode  none
attr title  "backoff, count"
scalar gridfullhost.switch[0].mac[4] 	collision:count 	0
attr interpolationmode  none
attr title  "collision, count"
scalar gridfullhost.switch[0].mac[4] 	droppedPkNotForUs:count 	0
attr interpolationmode  none
attr source  dropPkNotForUs
attr title  "packets dropped/not for us, count"
scalar gridfullhost.switch[0].mac[4] 	droppedPkNotForUs:sum(packetBytes) 	0
attr interpolationmode  none
attr source  dropPkNotForUs
attr title  "packets dropped/not for us, sum(packetBytes)"
scalar gridfullhost.switch[0].mac[4] 	droppedPkBitError:count 	0
attr interpolationmode  none
attr source  dropPkBitError
attr title  "packets dropped/bit error, count"
scalar gridfullhost.switch[0].mac[4] 	droppedPkBitError:sum(packetBytes) 	0
attr interpolationmode  none
attr source  dropPkBitError
attr title  "packets dropped/bit error, sum(packetBytes)"
scalar gridfullhost.switch[0].mac[4] 	droppedPkIfaceDown:count 	0
attr interpolationmode  none
attr source  dropPkIfaceDown
attr title  "packets dropped/interface down, count"
scalar gridfullhost.switch[0].mac[4] 	droppedPkIfaceDown:sum(packetBytes) 	0
attr interpolationmode  none
attr source  dropPkIfaceDown
attr title  "packets dropped/interface down, sum(packetBytes)"
scalar gridfullhost.switch[0].mac[4] 	rxPkFromHL:count 	299
attr interpolationmode  none
attr source  rxPkFromHL
attr title  "packet bytes from higher layer, count"
scalar gridfullhost.switch[0].mac[4] 	rxPkFromHL:sum(packetBytes) 	230256
attr interpolationmode  none
attr source  rxPkFromHL
attr title  "packet bytes from higher layer, sum(packetBytes)"
scalar gridfullhost.switch[0].mac[4] 	rxPausePkUnits:count 	0
attr interpolationmode  none
attr title  "pause units received, count"
scalar gridfullhost.switch[0].mac[4] 	rxPausePkUnits:sum 	0
attr interpolationmode  none
attr title  "pause units received, sum"
scalar gridfullhost.switch[0].mac[4] 	txPausePkUnits:count 	0
attr interpolationmode  none
attr title  "pause units sent, count"
scalar gridfullhost.switch[0].mac[4] 	txPausePkUnits:sum 	0
attr interpolationmode  none
attr title  "pause units sent, sum"
scalar gridfullhost.switch[0].mac[4] 	passedUpPk:count 	146
attr interpolationmode  none
attr source  packetSentToUpper
attr title  "packets passed to higher layer, count"
scalar gridfullhost.switch[0].mac[4] 	passedUpPk:sum(packetBytes) 	10794
attr interpolationmode  none
attr source  packetSentToUpper
attr title  "packets passed to higher layer, sum(packetBytes)"
scalar gridfullhost.switch[0].mac[4] 	rxPkOk:count 	146
attr interpolationmode  none
attr source  rxPkOk
attr title  "packets received OK, count"
scalar gridfullhost.switch[0].mac[4] 	rxPkOk:sum(packetBytes) 	10794
attr interpolationmode  none
attr source  rxPkOk
attr title  "packets received OK, sum(packetBytes)"
scalar gridfullhost.switch[0].mac[4] 	txPk:count 	299
attr interpolationmode  none
attr source  txPk
attr title  "packets transmitted, count"
scalar gridfullhost.switch[0].mac[4] 	txPk:sum(packetBytes) 	230256
attr interpolationmode  none
attr source  txPk
attr title  "packets transmitted, sum(packetBytes)"
scalar gridfullhost.switch[0].mac[5] 	"simulated time" 	5.227951348467
scalar gridfullhost.switch[0].mac[5] 	full-duplex 	1
scalar gridfullhost.switch[0].mac[5] 	"frames/sec sent" 	86.649620435514
scalar gridfullhost.switch[0].mac[5] 	"frames/sec rcvd" 	102.90837923688
scalar gridfullhost.switch[0].mac[5] 	"bits/sec sent" 	308256.88545716
scalar gridfullhost.switch[0].mac[5] 	"bits/sec rcvd" 	522364.46324253
scalar gridfullhost.switch[0].mac[5] 	"rx channel idle (%)" 	99.471049400486
scalar gridfullhost.switch[0].mac[5] 	"rx channel utilization (%)" 	0.52895059951369
scalar gridfullhost.switch[0].mac[5] 	"rx channel collision (%)" 	0
scalar gridfullhost.switch[0].mac[5] 	collisions 	0
scalar gridfullhost.switch[0].mac[5] 	backoffs 	0
scalar gridfullhost.switch[0].mac[5] 	"average latency" 	0
scalar gridfullhost.switch[0].mac[5] 	"max latency" 	0
scalar gridfullhost.switch[0].mac[5] 	"min latency" 	100
scalar gridfullhost.switch[0].mac[5] 	"average processing time" 	0
scalar gridfullhost.switch[0].mac[5] 	"max processing time" 	0
scalar gridfullhost.switch[0].mac[5] 	"min processing time" 	100
scalar gridfullhost.switch[0].mac[5] 	"ARP requests rcvd" 	0
scalar gridfullhost.switch[0].mac[5] 	backoff:count 	0
attr interpolationmode  none
attr title  "backoff, count"
scalar gridfullhost.switch[0].mac[5] 	collision:count 	0
attr interpolationmode  none
attr title  "collision, count"
scalar gridfullhost.switch[0].mac[5] 	droppedPkNotForUs:count 	0
attr interpolationmode  none
attr source  dropPkNotForUs
attr title  "packets dropped/not for us, count"
scalar gridfullhost.switch[0].mac[5] 	droppedPkNotForUs:sum(packetBytes) 	0
attr interpolationmode  none
attr source  dropPkNotForUs
attr title  "packets dropped/not for us, sum(packetBytes)"
scalar gridfullhost.switch[0].mac[5] 	droppedPkBitError:count 	0
attr interpolationmode  none
attr source  dropPkBitError
attr title  "packets dropped/bit error, count"
scalar gridfullhost.switch[0].mac[5] 	droppedPkBitError:sum(packetBytes) 	0
attr interpolationmode  none
attr source  dropPkBitError
attr title  "packets dropped/bit error, sum(packetBytes)"
scalar gridfullhost.switch[0].mac[5] 	droppedPkIfaceDown:count 	0
attr interpolationmode  none
attr source  dropPkIfaceDown
attr title  "packets dropped/interface down, count"
scalar gridfullhost.switch[0].mac[5] 	droppedPkIfaceDown:sum(packetBytes) 	0
attr interpolationmode  none
attr source  dropPkIfaceDown
attr title  "packets dropped/interface down, sum(packetBytes)"
scalar gridfullhost.switch[0].mac[5] 	rxPkFromHL:count 	453
attr interpolationmode  none
attr source  rxPkFromHL
attr title  "packet bytes from higher layer, count"
scalar gridfullhost.switch[0].mac[5] 	rxPkFromHL:sum(packetBytes) 	201444
attr interpolationmode  none
attr source  rxPkFromHL
attr title  "packet bytes from higher layer, sum(packetBytes)"
scalar gridfullhost.switch[0].mac[5] 	rxPausePkUnits:count 	0
attr interpolationmode  none
attr title  "pause units received, count"
scalar gridfullhost.switch[0].mac[5] 	rxPausePkUnits:sum 	0
attr interpolationmode  none
attr title  "pause units received, sum"
scalar gridfullhost.switch[0].mac[5] 	txPausePkUnits:count 	0
attr interpolationmode  none
attr title  "pause units sent, count"
scalar gridfullhost.switch[0].mac[5] 	txPausePkUnits:sum 	0
attr interpolationmode  none
attr title  "pause units sent, sum"
scalar gridfullhost.switch[0].mac[5] 	passedUpPk:count 	538
attr interpolationmode  none
attr source  packetSentToUpper
attr title  "packets passed to higher layer, count"
scalar gridfullhost.switch[0].mac[5] 	passedUpPk:sum(packetBytes) 	341362
attr interpolationmode  none
attr source  packetSentToUpper
attr title  "packets passed to higher layer, sum(packetBytes)"
scalar gridfullhost.switch[0].mac[5] 	rxPkOk:count 	538
attr interpolationmode  none
attr source  rxPkOk
attr title  "packets received OK, count"
scalar gridfullhost.switch[0].mac[5] 	rxPkOk:sum(packetBytes) 	341362
attr interpolationmode  none
attr source  rxPkOk
attr title  "packets received OK, sum(packetBytes)"
scalar gridfullhost.switch[0].mac[5] 	txPk:count 	453
attr interpolationmode  none
attr source  txPk
attr title  "packets transmitted, count"
scalar gridfullhost.switch[0].mac[5] 	txPk:sum(packetBytes) 	201444
attr interpolationmode  none
attr source  txPk
attr title  "packets transmitted, sum(packetBytes)"
scalar gridfullhost.switch[0].mac[6] 	"simulated time" 	5.227951348467
scalar gridfullhost.switch[0].mac[6] 	full-duplex 	1
scalar gridfullhost.switch[0].mac[6] 	"frames/sec sent" 	159.33583625338
scalar gridfullhost.switch[0].mac[6] 	"frames/sec rcvd" 	78.998439823107
scalar gridfullhost.switch[0].mac[6] 	"bits/sec sent" 	999525.75142695
scalar gridfullhost.switch[0].mac[6] 	"bits/sec rcvd" 	46751.774014054
scalar gridfullhost.switch[0].mac[6] 	"rx channel idle (%)" 	99.948192325837
scalar gridfullhost.switch[0].mac[6] 	"rx channel utilization (%)" 	0.051807674162733
scalar gridfullhost.switch[0].mac[6] 	"rx channel collision (%)" 	0
scalar gridfullhost.switch[0].mac[6] 	collisions 	0
scalar gridfullhost.switch[0].mac[6] 	backoffs 	0
scalar gridfullhost.switch[0].mac[6] 	"average latency" 	0
scalar gridfullhost.switch[0].mac[6] 	"max latency" 	0
scalar gridfullhost.switch[0].mac[6] 	"min latency" 	100
scalar gridfullhost.switch[0].mac[6] 	"average processing time" 	0
scalar gridfullhost.switch[0].mac[6] 	"max processing time" 	0
scalar gridfullhost.switch[0].mac[6] 	"min processing time" 	100
scalar gridfullhost.switch[0].mac[6] 	"ARP requests rcvd" 	0
scalar gridfullhost.switch[0].mac[6] 	backoff:count 	0
attr interpolationmode  none
attr title  "backoff, count"
scalar gridfullhost.switch[0].mac[6] 	collision:count 	0
attr interpolationmode  none
attr title  "collision, count"
scalar gridfullhost.switch[0].mac[6] 	droppedPkNotForUs:count 	0
attr interpolationmode  none
attr source  dropPkNotForUs
attr title  "packets dropped/not for us, count"
scalar gridfullhost.switch[0].mac[6] 	droppedPkNotForUs:sum(packetBytes) 	0
attr interpolationmode  none
attr source  dropPkNotForUs
attr title  "packets dropped/not for us, sum(packetBytes)"
scalar gridfullhost.switch[0].mac[6] 	droppedPkBitError:count 	0
attr interpolationmode  none
attr source  dropPkBitError
attr title  "packets dropped/bit error, count"
scalar gridfullhost.switch[0].mac[6] 	droppedPkBitError:sum(packetBytes) 	0
attr interpolationmode  none
attr source  dropPkBitError
attr title  "packets dropped/bit error, sum(packetBytes)"
scalar gridfullhost.switch[0].mac[6] 	droppedPkIfaceDown:count 	0
attr interpolationmode  none
attr source  dropPkIfaceDown
attr title  "packets dropped/interface down, count"
scalar gridfullhost.switch[0].mac[6] 	droppedPkIfaceDown:sum(packetBytes) 	0
attr interpolationmode  none
attr source  dropPkIfaceDown
attr title  "packets dropped/interface down, sum(packetBytes)"
scalar gridfullhost.switch[0].mac[6] 	rxPkFromHL:count 	833
attr interpolationmode  none
attr source  rxPkFromHL
attr title  "packet bytes from higher layer, count"
scalar gridfullhost.switch[0].mac[6] 	rxPkFromHL:sum(packetBytes) 	653184
attr interpolationmode  none
attr source  rxPkFromHL
attr title  "packet bytes from higher layer, sum(packetBytes)"
scalar gridfullhost.switch[0].mac[6] 	rxPausePkUnits:count 	0
attr interpolationmode  none
attr title  "pause units received, count"
scalar gridfullhost.switch[0].mac[6] 	rxPausePkUnits:sum 	0
attr interpolationmode  none
attr title  "pause units received, sum"
scalar gridfullhost.switch[0].mac[6] 	txPausePkUnits:count 	0
attr interpolationmode  none
attr title  "pause units sent, count"
scalar gridfullhost.switch[0].mac[6] 	txPausePkUnits:sum 	0
attr interpolationmode  none
attr title  "pause units sent, sum"
scalar gridfullhost.switch[0].mac[6] 	passedUpPk:count 	413
attr interpolationmode  none
attr source  packetSentToUpper
attr title  "packets passed to higher layer, count"
scalar gridfullhost.switch[0].mac[6] 	passedUpPk:sum(packetBytes) 	30552
attr interpolationmode  none
attr source  packetSentToUpper
attr title  "packets passed to higher layer, sum(packetBytes)"
scalar gridfullhost.switch[0].mac[6] 	rxPkOk:count 	413
attr interpolationmode  none
attr source  rxPkOk
attr title  "packets received OK, count"
scalar gridfullhost.switch[0].mac[6] 	rxPkOk:sum(packetBytes) 	30552
attr interpolationmode  none
attr source  rxPkOk
attr title  "packets received OK, sum(packetBytes)"
scalar gridfullhost.switch[0].mac[6] 	txPk:count 	833
attr interpolationmode  none
attr source  txPk
attr title  "packets transmitted, count"
scalar gridfullhost.switch[0].mac[6] 	txPk:sum(packetBytes) 	653184
attr interpolationmode  none
attr source  txPk
attr title  "packets transmitted, sum(packetBytes)"
scalar gridfullhost.switch[1].relayUnit 	"processed frames" 	18
scalar gridfullhost.switch[1].relayUnit 	"dropped frames" 	0
scalar gridfullhost.switch[1].relayUnit 	"processed frames" 	18
scalar gridfullhost.switch[1].relayUnit 	"dropped frames" 	0
scalar gridfullhost.switch[1].relayUnit 	"retx frames" 	0
scalar gridfullhost.switch[1].relayUnit 	"ARP requests rcvd" 	0
scalar gridfullhost.switch[1].relayUnit 	"ARP replies rcvd" 	0
scalar gridfullhost.switch[1].relayUnit 	"number of reparations" 	0
scalar gridfullhost.switch[1].mac[0] 	"simulated time" 	5.227951348467
scalar gridfullhost.switch[1].mac[0] 	full-duplex 	1
scalar gridfullhost.switch[1].mac[0] 	"frames/sec sent" 	0
scalar gridfullhost.switch[1].mac[0] 	"frames/sec rcvd" 	1.7215156377917
scalar gridfullhost.switch[1].mac[0] 	"bits/sec sent" 	0
scalar gridfullhost.switch[1].mac[0] 	"bits/sec rcvd" 	881.41600654934
scalar gridfullhost.switch[1].mac[0] 	"rx channel idle (%)" 	99.999008406993
scalar gridfullhost.switch[1].mac[0] 	"rx channel utilization (%)" 	0.000991593007368
scalar gridfullhost.switch[1].mac[0] 	"rx channel collision (%)" 	0
scalar gridfullhost.switch[1].mac[0] 	collisions 	0
scalar gridfullhost.switch[1].mac[0] 	backoffs 	0
scalar gridfullhost.switch[1].mac[0] 	"average latency" 	0
scalar gridfullhost.switch[1].mac[0] 	"max latency" 	0
scalar gridfullhost.switch[1].mac[0] 	"min latency" 	100
scalar gridfullhost.switch[1].mac[0] 	"average processing time" 	0
scalar gridfullhost.switch[1].mac[0] 	"max processing time" 	0
scalar gridfullhost.switch[1].mac[0] 	"min processing time" 	100
scalar gridfullhost.switch[1].mac[0] 	"ARP requests rcvd" 	9
scalar gridfullhost.switch[1].mac[0] 	backoff:count 	0
attr interpolationmode  none
attr title  "backoff, count"
scalar gridfullhost.switch[1].mac[0] 	collision:count 	0
attr interpolationmode  none
attr title  "collision, count"
scalar gridfullhost.switch[1].mac[0] 	droppedPkNotForUs:count 	0
attr interpolationmode  none
attr source  dropPkNotForUs
attr title  "packets dropped/not for us, count"
scalar gridfullhost.switch[1].mac[0] 	droppedPkNotForUs:sum(packetBytes) 	0
attr interpolationmode  none
attr source  dropPkNotForUs
attr title  "packets dropped/not for us, sum(packetBytes)"
scalar gridfullhost.switch[1].mac[0] 	droppedPkBitError:count 	0
attr interpolationmode  none
attr source  dropPkBitError
attr title  "packets dropped/bit error, count"
scalar gridfullhost.switch[1].mac[0] 	droppedPkBitError:sum(packetBytes) 	0
attr interpolationmode  none
attr source  dropPkBitError
attr title  "packets dropped/bit error, sum(packetBytes)"
scalar gridfullhost.switch[1].mac[0] 	droppedPkIfaceDown:count 	0
attr interpolationmode  none
attr source  dropPkIfaceDown
attr title  "packets dropped/interface down, count"
scalar gridfullhost.switch[1].mac[0] 	droppedPkIfaceDown:sum(packetBytes) 	0
attr interpolationmode  none
attr source  dropPkIfaceDown
attr title  "packets dropped/interface down, sum(packetBytes)"
scalar gridfullhost.switch[1].mac[0] 	rxPkFromHL:count 	0
attr interpolationmode  none
attr source  rxPkFromHL
attr title  "packet bytes from higher layer, count"
scalar gridfullhost.switch[1].mac[0] 	rxPkFromHL:sum(packetBytes) 	0
attr interpolationmode  none
attr source  rxPkFromHL
attr title  "packet bytes from higher layer, sum(packetBytes)"
scalar gridfullhost.switch[1].mac[0] 	rxPausePkUnits:count 	0
attr interpolationmode  none
attr title  "pause units received, count"
scalar gridfullhost.switch[1].mac[0] 	rxPausePkUnits:sum 	0
attr interpolationmode  none
attr title  "pause units received, sum"
scalar gridfullhost.switch[1].mac[0] 	txPausePkUnits:count 	0
attr interpolationmode  none
attr title  "pause units sent, count"
scalar gridfullhost.switch[1].mac[0] 	txPausePkUnits:sum 	0
attr interpolationmode  none
attr title  "pause units sent, sum"
scalar gridfullhost.switch[1].mac[0] 	passedUpPk:count 	9
attr interpolationmode  none
attr source  packetSentToUpper
attr title  "packets passed to higher layer, count"
scalar gridfullhost.switch[1].mac[0] 	passedUpPk:sum(packetBytes) 	576
attr interpolationmode  none
attr source  packetSentToUpper
attr title  "packets passed to higher layer, sum(packetBytes)"
scalar gridfullhost.switch[1].mac[0] 	rxPkOk:count 	9
attr interpolationmode  none
attr source  rxPkOk
attr title  "packets received OK, count"
scalar gridfullhost.switch[1].mac[0] 	rxPkOk:sum(packetBytes) 	576
attr interpolationmode  none
attr source  rxPkOk
attr title  "packets received OK, sum(packetBytes)"
scalar gridfullhost.switch[1].mac[0] 	txPk:count 	0
attr interpolationmode  none
attr source  txPk
attr title  "packets transmitted, count"
scalar gridfullhost.switch[1].mac[0] 	txPk:sum(packetBytes) 	0
attr interpolationmode  none
attr source  txPk
attr title  "packets transmitted, sum(packetBytes)"
scalar gridfullhost.switch[1].mac[1] 	"simulated time" 	5.227951348467
scalar gridfullhost.switch[1].mac[1] 	full-duplex 	1
scalar gridfullhost.switch[1].mac[1] 	"frames/sec sent" 	1.7215156377917
scalar gridfullhost.switch[1].mac[1] 	"frames/sec rcvd" 	1.7215156377917
scalar gridfullhost.switch[1].mac[1] 	"bits/sec sent" 	881.41600654934
scalar gridfullhost.switch[1].mac[1] 	"bits/sec rcvd" 	881.41600654934
scalar gridfullhost.switch[1].mac[1] 	"rx channel idle (%)" 	99.999008406993
scalar gridfullhost.switch[1].mac[1] 	"rx channel utilization (%)" 	0.000991593007368
scalar gridfullhost.switch[1].mac[1] 	"rx channel collision (%)" 	0
scalar gridfullhost.switch[1].mac[1] 	collisions 	0
scalar gridfullhost.switch[1].mac[1] 	backoffs 	0
scalar gridfullhost.switch[1].mac[1] 	"average latency" 	0
scalar gridfullhost.switch[1].mac[1] 	"max latency" 	0
scalar gridfullhost.switch[1].mac[1] 	"min latency" 	100
scalar gridfullhost.switch[1].mac[1] 	"average processing time" 	0
scalar gridfullhost.switch[1].mac[1] 	"max processing time" 	0
scalar gridfullhost.switch[1].mac[1] 	"min processing time" 	100
scalar gridfullhost.switch[1].mac[1] 	"ARP requests rcvd" 	9
scalar gridfullhost.switch[1].mac[1] 	backoff:count 	0
attr interpolationmode  none
attr title  "backoff, count"
scalar gridfullhost.switch[1].mac[1] 	collision:count 	0
attr interpolationmode  none
attr title  "collision, count"
scalar gridfullhost.switch[1].mac[1] 	droppedPkNotForUs:count 	0
attr interpolationmode  none
attr source  dropPkNotForUs
attr title  "packets dropped/not for us, count"
scalar gridfullhost.switch[1].mac[1] 	droppedPkNotForUs:sum(packetBytes) 	0
attr interpolationmode  none
attr source  dropPkNotForUs
attr title  "packets dropped/not for us, sum(packetBytes)"
scalar gridfullhost.switch[1].mac[1] 	droppedPkBitError:count 	0
attr interpolationmode  none
attr source  dropPkBitError
attr title  "packets dropped/bit error, count"
scalar gridfullhost.switch[1].mac[1] 	droppedPkBitError:sum(packetBytes) 	0
attr interpolationmode  none
attr source  dropPkBitError
attr title  "packets dropped/bit error, sum(packetBytes)"
scalar gridfullhost.switch[1].mac[1] 	droppedPkIfaceDown:count 	0
attr interpolationmode  none
attr source  dropPkIfaceDown
attr title  "packets dropped/interface down, count"
scalar gridfullhost.switch[1].mac[1] 	droppedPkIfaceDown:sum(packetBytes) 	0
attr interpolationmode  none
attr source  dropPkIfaceDown
attr title  "packets dropped/interface down, sum(packetBytes)"
scalar gridfullhost.switch[1].mac[1] 	rxPkFromHL:count 	9
attr interpolationmode  none
attr source  rxPkFromHL
attr title  "packet bytes from higher layer, count"
scalar gridfullhost.switch[1].mac[1] 	rxPkFromHL:sum(packetBytes) 	576
attr interpolationmode  none
attr source  rxPkFromHL
attr title  "packet bytes from higher layer, sum(packetBytes)"
scalar gridfullhost.switch[1].mac[1] 	rxPausePkUnits:count 	0
attr interpolationmode  none
attr title  "pause units received, count"
scalar gridfullhost.switch[1].mac[1] 	rxPausePkUnits:sum 	0
attr interpolationmode  none
attr title  "pause units received, sum"
scalar gridfullhost.switch[1].mac[1] 	txPausePkUnits:count 	0
attr interpolationmode  none
attr title  "pause units sent, count"
scalar gridfullhost.switch[1].mac[1] 	txPausePkUnits:sum 	0
attr interpolationmode  none
attr title  "pause units sent, sum"
scalar gridfullhost.switch[1].mac[1] 	passedUpPk:count 	9
attr interpolationmode  none
attr source  packetSentToUpper
attr title  "packets passed to higher layer, count"
scalar gridfullhost.switch[1].mac[1] 	passedUpPk:sum(packetBytes) 	576
attr interpolationmode  none
attr source  packetSentToUpper
attr title  "packets passed to higher layer, sum(packetBytes)"
scalar gridfullhost.switch[1].mac[1] 	rxPkOk:count 	9
attr interpolationmode  none
attr source  rxPkOk
attr title  "packets received OK, count"
scalar gridfullhost.switch[1].mac[1] 	rxPkOk:sum(packetBytes) 	576
attr interpolationmode  none
attr source  rxPkOk
attr title  "packets received OK, sum(packetBytes)"
scalar gridfullhost.switch[1].mac[1] 	txPk:count 	9
attr interpolationmode  none
attr source  txPk
attr title  "packets transmitted, count"
scalar gridfullhost.switch[1].mac[1] 	txPk:sum(packetBytes) 	576
attr interpolationmode  none
attr source  txPk
attr title  "packets transmitted, sum(packetBytes)"
scalar gridfullhost.switch[1].mac[2] 	"simulated time" 	5.227951348467
scalar gridfullhost.switch[1].mac[2] 	full-duplex 	1
scalar gridfullhost.switch[1].mac[2] 	"frames/sec sent" 	1.7215156377917
scalar gridfullhost.switch[1].mac[2] 	"frames/sec rcvd" 	0
scalar gridfullhost.switch[1].mac[2] 	"bits/sec sent" 	881.41600654934
scalar gridfullhost.switch[1].mac[2] 	"bits/sec rcvd" 	0
scalar gridfullhost.switch[1].mac[2] 	"rx channel idle (%)" 	100
scalar gridfullhost.switch[1].mac[2] 	"rx channel utilization (%)" 	0
scalar gridfullhost.switch[1].mac[2] 	"rx channel collision (%)" 	0
scalar gridfullhost.switch[1].mac[2] 	collisions 	0
scalar gridfullhost.switch[1].mac[2] 	backoffs 	0
scalar gridfullhost.switch[1].mac[2] 	"average latency" 	0
scalar gridfullhost.switch[1].mac[2] 	"max latency" 	0
scalar gridfullhost.switch[1].mac[2] 	"min latency" 	100
scalar gridfullhost.switch[1].mac[2] 	"average processing time" 	0
scalar gridfullhost.switch[1].mac[2] 	"max processing time" 	0
scalar gridfullhost.switch[1].mac[2] 	"min processing time" 	100
scalar gridfullhost.switch[1].mac[2] 	"ARP requests rcvd" 	0
scalar gridfullhost.switch[1].mac[2] 	backoff:count 	0
attr interpolationmode  none
attr title  "backoff, count"
scalar gridfullhost.switch[1].mac[2] 	collision:count 	0
attr interpolationmode  none
attr title  "collision, count"
scalar gridfullhost.switch[1].mac[2] 	droppedPkNotForUs:count 	0
attr interpolationmode  none
attr source  dropPkNotForUs
attr title  "packets dropped/not for us, count"
scalar gridfullhost.switch[1].mac[2] 	droppedPkNotForUs:sum(packetBytes) 	0
attr interpolationmode  none
attr source  dropPkNotForUs
attr title  "packets dropped/not for us, sum(packetBytes)"
scalar gridfullhost.switch[1].mac[2] 	droppedPkBitError:count 	0
attr interpolationmode  none
attr source  dropPkBitError
attr title  "packets dropped/bit error, count"
scalar gridfullhost.switch[1].mac[2] 	droppedPkBitError:sum(packetBytes) 	0
attr interpolationmode  none
attr source  dropPkBitError
attr title  "packets dropped/bit error, sum(packetBytes)"
scalar gridfullhost.switch[1].mac[2] 	droppedPkIfaceDown:count 	0
attr interpolationmode  none
attr source  dropPkIfaceDown
attr title  "packets dropped/interface down, count"
scalar gridfullhost.switch[1].mac[2] 	droppedPkIfaceDown:sum(packetBytes) 	0
attr interpolationmode  none
attr source  dropPkIfaceDown
attr title  "packets dropped/interface down, sum(packetBytes)"
scalar gridfullhost.switch[1].mac[2] 	rxPkFromHL:count 	9
attr interpolationmode  none
attr source  rxPkFromHL
attr title  "packet bytes from higher layer, count"
scalar gridfullhost.switch[1].mac[2] 	rxPkFromHL:sum(packetBytes) 	576
attr interpolationmode  none
attr source  rxPkFromHL
attr title  "packet bytes from higher layer, sum(packetBytes)"
scalar gridfullhost.switch[1].mac[2] 	rxPausePkUnits:count 	0
attr interpolationmode  none
attr title  "pause units received, count"
scalar gridfullhost.switch[1].mac[2] 	rxPausePkUnits:sum 	0
attr interpolationmode  none
attr title  "pause units received, sum"
scalar gridfullhost.switch[1].mac[2] 	txPausePkUnits:count 	0
attr interpolationmode  none
attr title  "pause units sent, count"
scalar gridfullhost.switch[1].mac[2] 	txPausePkUnits:sum 	0
attr interpolationmode  none
attr title  "pause units sent, sum"
scalar gridfullhost.switch[1].mac[2] 	passedUpPk:count 	0
attr interpolationmode  none
attr source  packetSentToUpper
attr title  "packets passed to higher layer, count"
scalar gridfullhost.switch[1].mac[2] 	passedUpPk:sum(packetBytes) 	0
attr interpolationmode  none
attr source  packetSentToUpper
attr title  "packets passed to higher layer, sum(packetBytes)"
scalar gridfullhost.switch[1].mac[2] 	rxPkOk:count 	0
attr interpolationmode  none
attr source  rxPkOk
attr title  "packets received OK, count"
scalar gridfullhost.switch[1].mac[2] 	rxPkOk:sum(packetBytes) 	0
attr interpolationmode  none
attr source  rxPkOk
attr title  "packets received OK, sum(packetBytes)"
scalar gridfullhost.switch[1].mac[2] 	txPk:count 	9
attr interpolationmode  none
attr source  txPk
attr title  "packets transmitted, count"
scalar gridfullhost.switch[1].mac[2] 	txPk:sum(packetBytes) 	576
attr interpolationmode  none
attr source  txPk
attr title  "packets transmitted, sum(packetBytes)"
scalar gridfullhost.switch[1].mac[3] 	"simulated time" 	5.227951348467
scalar gridfullhost.switch[1].mac[3] 	full-duplex 	1
scalar gridfullhost.switch[1].mac[3] 	"frames/sec sent" 	1.7215156377917
scalar gridfullhost.switch[1].mac[3] 	"frames/sec rcvd" 	0
scalar gridfullhost.switch[1].mac[3] 	"bits/sec sent" 	881.41600654934
scalar gridfullhost.switch[1].mac[3] 	"bits/sec rcvd" 	0
scalar gridfullhost.switch[1].mac[3] 	"rx channel idle (%)" 	100
scalar gridfullhost.switch[1].mac[3] 	"rx channel utilization (%)" 	0
scalar gridfullhost.switch[1].mac[3] 	"rx channel collision (%)" 	0
scalar gridfullhost.switch[1].mac[3] 	collisions 	0
scalar gridfullhost.switch[1].mac[3] 	backoffs 	0
scalar gridfullhost.switch[1].mac[3] 	"average latency" 	0
scalar gridfullhost.switch[1].mac[3] 	"max latency" 	0
scalar gridfullhost.switch[1].mac[3] 	"min latency" 	100
scalar gridfullhost.switch[1].mac[3] 	"average processing time" 	0
scalar gridfullhost.switch[1].mac[3] 	"max processing time" 	0
scalar gridfullhost.switch[1].mac[3] 	"min processing time" 	100
scalar gridfullhost.switch[1].mac[3] 	"ARP requests rcvd" 	0
scalar gridfullhost.switch[1].mac[3] 	backoff:count 	0
attr interpolationmode  none
attr title  "backoff, count"
scalar gridfullhost.switch[1].mac[3] 	collision:count 	0
attr interpolationmode  none
attr title  "collision, count"
scalar gridfullhost.switch[1].mac[3] 	droppedPkNotForUs:count 	0
attr interpolationmode  none
attr source  dropPkNotForUs
attr title  "packets dropped/not for us, count"
scalar gridfullhost.switch[1].mac[3] 	droppedPkNotForUs:sum(packetBytes) 	0
attr interpolationmode  none
attr source  dropPkNotForUs
attr title  "packets dropped/not for us, sum(packetBytes)"
scalar gridfullhost.switch[1].mac[3] 	droppedPkBitError:count 	0
attr interpolationmode  none
attr source  dropPkBitError
attr title  "packets dropped/bit error, count"
scalar gridfullhost.switch[1].mac[3] 	droppedPkBitError:sum(packetBytes) 	0
attr interpolationmode  none
attr source  dropPkBitError
attr title  "packets dropped/bit error, sum(packetBytes)"
scalar gridfullhost.switch[1].mac[3] 	droppedPkIfaceDown:count 	0
attr interpolationmode  none
attr source  dropPkIfaceDown
attr title  "packets dropped/interface down, count"
scalar gridfullhost.switch[1].mac[3] 	droppedPkIfaceDown:sum(packetBytes) 	0
attr interpolationmode  none
attr source  dropPkIfaceDown
attr title  "packets dropped/interface down, sum(packetBytes)"
scalar gridfullhost.switch[1].mac[3] 	rxPkFromHL:count 	9
attr interpolationmode  none
attr source  rxPkFromHL
attr title  "packet bytes from higher layer, count"
scalar gridfullhost.switch[1].mac[3] 	rxPkFromHL:sum(packetBytes) 	576
attr interpolationmode  none
attr source  rxPkFromHL
attr title  "packet bytes from higher layer, sum(packetBytes)"
scalar gridfullhost.switch[1].mac[3] 	rxPausePkUnits:count 	0
attr interpolationmode  none
attr title  "pause units received, count"
scalar gridfullhost.switch[1].mac[3] 	rxPausePkUnits:sum 	0
attr interpolationmode  none
attr title  "pause units received, sum"
scalar gridfullhost.switch[1].mac[3] 	txPausePkUnits:count 	0
attr interpolationmode  none
attr title  "pause units sent, count"
scalar gridfullhost.switch[1].mac[3] 	txPausePkUnits:sum 	0
attr interpolationmode  none
attr title  "pause units sent, sum"
scalar gridfullhost.switch[1].mac[3] 	passedUpPk:count 	0
attr interpolationmode  none
attr source  packetSentToUpper
attr title  "packets passed to higher layer, count"
scalar gridfullhost.switch[1].mac[3] 	passedUpPk:sum(packetBytes) 	0
attr interpolationmode  none
attr source  packetSentToUpper
attr title  "packets passed to higher layer, sum(packetBytes)"
scalar gridfullhost.switch[1].mac[3] 	rxPkOk:count 	0
attr interpolationmode  none
attr source  rxPkOk
attr title  "packets received OK, count"
scalar gridfullhost.switch[1].mac[3] 	rxPkOk:sum(packetBytes) 	0
attr interpolationmode  none
attr source  rxPkOk
attr title  "packets received OK, sum(packetBytes)"
scalar gridfullhost.switch[1].mac[3] 	txPk:count 	9
attr interpolationmode  none
attr source  txPk
attr title  "packets transmitted, count"
scalar gridfullhost.switch[1].mac[3] 	txPk:sum(packetBytes) 	576
attr interpolationmode  none
attr source  txPk
attr title  "packets transmitted, sum(packetBytes)"
scalar gridfullhost.switch[1].mac[4] 	"simulated time" 	5.227951348467
scalar gridfullhost.switch[1].mac[4] 	full-duplex 	1
scalar gridfullhost.switch[1].mac[4] 	"frames/sec sent" 	1.7215156377917
scalar gridfullhost.switch[1].mac[4] 	"frames/sec rcvd" 	0
scalar gridfullhost.switch[1].mac[4] 	"bits/sec sent" 	881.41600654934
scalar gridfullhost.switch[1].mac[4] 	"bits/sec rcvd" 	0
scalar gridfullhost.switch[1].mac[4] 	"rx channel idle (%)" 	100
scalar gridfullhost.switch[1].mac[4] 	"rx channel utilization (%)" 	0
scalar gridfullhost.switch[1].mac[4] 	"rx channel collision (%)" 	0
scalar gridfullhost.switch[1].mac[4] 	collisions 	0
scalar gridfullhost.switch[1].mac[4] 	backoffs 	0
scalar gridfullhost.switch[1].mac[4] 	"average latency" 	0
scalar gridfullhost.switch[1].mac[4] 	"max latency" 	0
scalar gridfullhost.switch[1].mac[4] 	"min latency" 	100
scalar gridfullhost.switch[1].mac[4] 	"average processing time" 	0
scalar gridfullhost.switch[1].mac[4] 	"max processing time" 	0
scalar gridfullhost.switch[1].mac[4] 	"min processing time" 	100
scalar gridfullhost.switch[1].mac[4] 	"ARP requests rcvd" 	0
scalar gridfullhost.switch[1].mac[4] 	backoff:count 	0
attr interpolationmode  none
attr title  "backoff, count"
scalar gridfullhost.switch[1].mac[4] 	collision:count 	0
attr interpolationmode  none
attr title  "collision, count"
scalar gridfullhost.switch[1].mac[4] 	droppedPkNotForUs:count 	0
attr interpolationmode  none
attr source  dropPkNotForUs
attr title  "packets dropped/not for us, count"
scalar gridfullhost.switch[1].mac[4] 	droppedPkNotForUs:sum(packetBytes) 	0
attr interpolationmode  none
attr source  dropPkNotForUs
attr title  "packets dropped/not for us, sum(packetBytes)"
scalar gridfullhost.switch[1].mac[4] 	droppedPkBitError:count 	0
attr interpolationmode  none
attr source  dropPkBitError
attr title  "packets dropped/bit error, count"
scalar gridfullhost.switch[1].mac[4] 	droppedPkBitError:sum(packetBytes) 	0
attr interpolationmode  none
attr source  dropPkBitError
attr title  "packets dropped/bit error, sum(packetBytes)"
scalar gridfullhost.switch[1].mac[4] 	droppedPkIfaceDown:count 	0
attr interpolationmode  none
attr source  dropPkIfaceDown
attr title  "packets dropped/interface down, count"
scalar gridfullhost.switch[1].mac[4] 	droppedPkIfaceDown:sum(packetBytes) 	0
attr interpolationmode  none
attr source  dropPkIfaceDown
attr title  "packets dropped/interface down, sum(packetBytes)"
scalar gridfullhost.switch[1].mac[4] 	rxPkFromHL:count 	9
attr interpolationmode  none
attr source  rxPkFromHL
attr title  "packet bytes from higher layer, count"
scalar gridfullhost.switch[1].mac[4] 	rxPkFromHL:sum(packetBytes) 	576
attr interpolationmode  none
attr source  rxPkFromHL
attr title  "packet bytes from higher layer, sum(packetBytes)"
scalar gridfullhost.switch[1].mac[4] 	rxPausePkUnits:count 	0
attr interpolationmode  none
attr title  "pause units received, count"
scalar gridfullhost.switch[1].mac[4] 	rxPausePkUnits:sum 	0
attr interpolationmode  none
attr title  "pause units received, sum"
scalar gridfullhost.switch[1].mac[4] 	txPausePkUnits:count 	0
attr interpolationmode  none
attr title  "pause units sent, count"
scalar gridfullhost.switch[1].mac[4] 	txPausePkUnits:sum 	0
attr interpolationmode  none
attr title  "pause units sent, sum"
scalar gridfullhost.switch[1].mac[4] 	passedUpPk:count 	0
attr interpolationmode  none
attr source  packetSentToUpper
attr title  "packets passed to higher layer, count"
scalar gridfullhost.switch[1].mac[4] 	passedUpPk:sum(packetBytes) 	0
attr interpolationmode  none
attr source  packetSentToUpper
attr title  "packets passed to higher layer, sum(packetBytes)"
scalar gridfullhost.switch[1].mac[4] 	rxPkOk:count 	0
attr interpolationmode  none
attr source  rxPkOk
attr title  "packets received OK, count"
scalar gridfullhost.switch[1].mac[4] 	rxPkOk:sum(packetBytes) 	0
attr interpolationmode  none
attr source  rxPkOk
attr title  "packets received OK, sum(packetBytes)"
scalar gridfullhost.switch[1].mac[4] 	txPk:count 	9
attr interpolationmode  none
attr source  txPk
attr title  "packets transmitted, count"
scalar gridfullhost.switch[1].mac[4] 	txPk:sum(packetBytes) 	576
attr interpolationmode  none
attr source  txPk
attr title  "packets transmitted, sum(packetBytes)"
scalar gridfullhost.switch[1].mac[5] 	"simulated time" 	5.227951348467
scalar gridfullhost.switch[1].mac[5] 	full-duplex 	1
scalar gridfullhost.switch[1].mac[5] 	"frames/sec sent" 	1.7215156377917
scalar gridfullhost.switch[1].mac[5] 	"frames/sec rcvd" 	0
scalar gridfullhost.switch[1].mac[5] 	"bits/sec sent" 	881.41600654934
scalar gridfullhost.switch[1].mac[5] 	"bits/sec rcvd" 	0
scalar gridfullhost.switch[1].mac[5] 	"rx channel idle (%)" 	100
scalar gridfullhost.switch[1].mac[5] 	"rx channel utilization (%)" 	0
scalar gridfullhost.switch[1].mac[5] 	"rx channel collision (%)" 	0
scalar gridfullhost.switch[1].mac[5] 	collisions 	0
scalar gridfullhost.switch[1].mac[5] 	backoffs 	0
scalar gridfullhost.switch[1].mac[5] 	"average latency" 	0
scalar gridfullhost.switch[1].mac[5] 	"max latency" 	0
scalar gridfullhost.switch[1].mac[5] 	"min latency" 	100
scalar gridfullhost.switch[1].mac[5] 	"average processing time" 	0
scalar gridfullhost.switch[1].mac[5] 	"max processing time" 	0
scalar gridfullhost.switch[1].mac[5] 	"min processing time" 	100
scalar gridfullhost.switch[1].mac[5] 	"ARP requests rcvd" 	0
scalar gridfullhost.switch[1].mac[5] 	backoff:count 	0
attr interpolationmode  none
attr title  "backoff, count"
scalar gridfullhost.switch[1].mac[5] 	collision:count 	0
attr interpolationmode  none
attr title  "collision, count"
scalar gridfullhost.switch[1].mac[5] 	droppedPkNotForUs:count 	0
attr interpolationmode  none
attr source  dropPkNotForUs
attr title  "packets dropped/not for us, count"
scalar gridfullhost.switch[1].mac[5] 	droppedPkNotForUs:sum(packetBytes) 	0
attr interpolationmode  none
attr source  dropPkNotForUs
attr title  "packets dropped/not for us, sum(packetBytes)"
scalar gridfullhost.switch[1].mac[5] 	droppedPkBitError:count 	0
attr interpolationmode  none
attr source  dropPkBitError
attr title  "packets dropped/bit error, count"
scalar gridfullhost.switch[1].mac[5] 	droppedPkBitError:sum(packetBytes) 	0
attr interpolationmode  none
attr source  dropPkBitError
attr title  "packets dropped/bit error, sum(packetBytes)"
scalar gridfullhost.switch[1].mac[5] 	droppedPkIfaceDown:count 	0
attr interpolationmode  none
attr source  dropPkIfaceDown
attr title  "packets dropped/interface down, count"
scalar gridfullhost.switch[1].mac[5] 	droppedPkIfaceDown:sum(packetBytes) 	0
attr interpolationmode  none
attr source  dropPkIfaceDown
attr title  "packets dropped/interface down, sum(packetBytes)"
scalar gridfullhost.switch[1].mac[5] 	rxPkFromHL:count 	9
attr interpolationmode  none
attr source  rxPkFromHL
attr title  "packet bytes from higher layer, count"
scalar gridfullhost.switch[1].mac[5] 	rxPkFromHL:sum(packetBytes) 	576
attr interpolationmode  none
attr source  rxPkFromHL
attr title  "packet bytes from higher layer, sum(packetBytes)"
scalar gridfullhost.switch[1].mac[5] 	rxPausePkUnits:count 	0
attr interpolationmode  none
attr title  "pause units received, count"
scalar gridfullhost.switch[1].mac[5] 	rxPausePkUnits:sum 	0
attr interpolationmode  none
attr title  "pause units received, sum"
scalar gridfullhost.switch[1].mac[5] 	txPausePkUnits:count 	0
attr interpolationmode  none
attr title  "pause units sent, count"
scalar gridfullhost.switch[1].mac[5] 	txPausePkUnits:sum 	0
attr interpolationmode  none
attr title  "pause units sent, sum"
scalar gridfullhost.switch[1].mac[5] 	passedUpPk:count 	0
attr interpolationmode  none
attr source  packetSentToUpper
attr title  "packets passed to higher layer, count"
scalar gridfullhost.switch[1].mac[5] 	passedUpPk:sum(packetBytes) 	0
attr interpolationmode  none
attr source  packetSentToUpper
attr title  "packets passed to higher layer, sum(packetBytes)"
scalar gridfullhost.switch[1].mac[5] 	rxPkOk:count 	0
attr interpolationmode  none
attr source  rxPkOk
attr title  "packets received OK, count"
scalar gridfullhost.switch[1].mac[5] 	rxPkOk:sum(packetBytes) 	0
attr interpolationmode  none
attr source  rxPkOk
attr title  "packets received OK, sum(packetBytes)"
scalar gridfullhost.switch[1].mac[5] 	txPk:count 	9
attr interpolationmode  none
attr source  txPk
attr title  "packets transmitted, count"
scalar gridfullhost.switch[1].mac[5] 	txPk:sum(packetBytes) 	576
attr interpolationmode  none
attr source  txPk
attr title  "packets transmitted, sum(packetBytes)"
scalar gridfullhost.switch[1].mac[6] 	"simulated time" 	5.227951348467
scalar gridfullhost.switch[1].mac[6] 	full-duplex 	1
scalar gridfullhost.switch[1].mac[6] 	"frames/sec sent" 	1.7215156377917
scalar gridfullhost.switch[1].mac[6] 	"frames/sec rcvd" 	0
scalar gridfullhost.switch[1].mac[6] 	"bits/sec sent" 	881.41600654934
scalar gridfullhost.switch[1].mac[6] 	"bits/sec rcvd" 	0
scalar gridfullhost.switch[1].mac[6] 	"rx channel idle (%)" 	100
scalar gridfullhost.switch[1].mac[6] 	"rx channel utilization (%)" 	0
scalar gridfullhost.switch[1].mac[6] 	"rx channel collision (%)" 	0
scalar gridfullhost.switch[1].mac[6] 	collisions 	0
scalar gridfullhost.switch[1].mac[6] 	backoffs 	0
scalar gridfullhost.switch[1].mac[6] 	"average latency" 	0
scalar gridfullhost.switch[1].mac[6] 	"max latency" 	0
scalar gridfullhost.switch[1].mac[6] 	"min latency" 	100
scalar gridfullhost.switch[1].mac[6] 	"average processing time" 	0
scalar gridfullhost.switch[1].mac[6] 	"max processing time" 	0
scalar gridfullhost.switch[1].mac[6] 	"min processing time" 	100
scalar gridfullhost.switch[1].mac[6] 	"ARP requests rcvd" 	0
scalar gridfullhost.switch[1].mac[6] 	backoff:count 	0
attr interpolationmode  none
attr title  "backoff, count"
scalar gridfullhost.switch[1].mac[6] 	collision:count 	0
attr interpolationmode  none
attr title  "collision, count"
scalar gridfullhost.switch[1].mac[6] 	droppedPkNotForUs:count 	0
attr interpolationmode  none
attr source  dropPkNotForUs
attr title  "packets dropped/not for us, count"
scalar gridfullhost.switch[1].mac[6] 	droppedPkNotForUs:sum(packetBytes) 	0
attr interpolationmode  none
attr source  dropPkNotForUs
attr title  "packets dropped/not for us, sum(packetBytes)"
scalar gridfullhost.switch[1].mac[6] 	droppedPkBitError:count 	0
attr interpolationmode  none
attr source  dropPkBitError
attr title  "packets dropped/bit error, count"
scalar gridfullhost.switch[1].mac[6] 	droppedPkBitError:sum(packetBytes) 	0
attr interpolationmode  none
attr source  dropPkBitError
attr title  "packets dropped/bit error, sum(packetBytes)"
scalar gridfullhost.switch[1].mac[6] 	droppedPkIfaceDown:count 	0
attr interpolationmode  none
attr source  dropPkIfaceDown
attr title  "packets dropped/interface down, count"
scalar gridfullhost.switch[1].mac[6] 	droppedPkIfaceDown:sum(packetBytes) 	0
attr interpolationmode  none
attr source  dropPkIfaceDown
attr title  "packets dropped/interface down, sum(packetBytes)"
scalar gridfullhost.switch[1].mac[6] 	rxPkFromHL:count 	9
attr interpolationmode  none
attr source  rxPkFromHL
attr title  "packet bytes from higher layer, count"
scalar gridfullhost.switch[1].mac[6] 	rxPkFromHL:sum(packetBytes) 	576
attr interpolationmode  none
attr source  rxPkFromHL
attr title  "packet bytes from higher layer, sum(packetBytes)"
scalar gridfullhost.switch[1].mac[6] 	rxPausePkUnits:count 	0
attr interpolationmode  none
attr title  "pause units received, count"
scalar gridfullhost.switch[1].mac[6] 	rxPausePkUnits:sum 	0
attr interpolationmode  none
attr title  "pause units received, sum"
scalar gridfullhost.switch[1].mac[6] 	txPausePkUnits:count 	0
attr interpolationmode  none
attr title  "pause units sent, count"
scalar gridfullhost.switch[1].mac[6] 	txPausePkUnits:sum 	0
attr interpolationmode  none
attr title  "pause units sent, sum"
scalar gridfullhost.switch[1].mac[6] 	passedUpPk:count 	0
attr interpolationmode  none
attr source  packetSentToUpper
attr title  "packets passed to higher layer, count"
scalar gridfullhost.switch[1].mac[6] 	passedUpPk:sum(packetBytes) 	0
attr interpolationmode  none
attr source  packetSentToUpper
attr title  "packets passed to higher layer, sum(packetBytes)"
scalar gridfullhost.switch[1].mac[6] 	rxPkOk:count 	0
attr interpolationmode  none
attr source  rxPkOk
attr title  "packets received OK, count"
scalar gridfullhost.switch[1].mac[6] 	rxPkOk:sum(packetBytes) 	0
attr interpolationmode  none
attr source  rxPkOk
attr title  "packets received OK, sum(packetBytes)"
scalar gridfullhost.switch[1].mac[6] 	txPk:count 	9
attr interpolationmode  none
attr source  txPk
attr title  "packets transmitted, count"
scalar gridfullhost.switch[1].mac[6] 	txPk:sum(packetBytes) 	576
attr interpolationmode  none
attr source  txPk
attr title  "packets transmitted, sum(packetBytes)"
scalar gridfullhost.switch[1].mac[7] 	"simulated time" 	5.227951348467
scalar gridfullhost.switch[1].mac[7] 	full-duplex 	1
scalar gridfullhost.switch[1].mac[7] 	"frames/sec sent" 	1.7215156377917
scalar gridfullhost.switch[1].mac[7] 	"frames/sec rcvd" 	0
scalar gridfullhost.switch[1].mac[7] 	"bits/sec sent" 	881.41600654934
scalar gridfullhost.switch[1].mac[7] 	"bits/sec rcvd" 	0
scalar gridfullhost.switch[1].mac[7] 	"rx channel idle (%)" 	100
scalar gridfullhost.switch[1].mac[7] 	"rx channel utilization (%)" 	0
scalar gridfullhost.switch[1].mac[7] 	"rx channel collision (%)" 	0
scalar gridfullhost.switch[1].mac[7] 	collisions 	0
scalar gridfullhost.switch[1].mac[7] 	backoffs 	0
scalar gridfullhost.switch[1].mac[7] 	"average latency" 	0
scalar gridfullhost.switch[1].mac[7] 	"max latency" 	0
scalar gridfullhost.switch[1].mac[7] 	"min latency" 	100
scalar gridfullhost.switch[1].mac[7] 	"average processing time" 	0
scalar gridfullhost.switch[1].mac[7] 	"max processing time" 	0
scalar gridfullhost.switch[1].mac[7] 	"min processing time" 	100
scalar gridfullhost.switch[1].mac[7] 	"ARP requests rcvd" 	0
scalar gridfullhost.switch[1].mac[7] 	backoff:count 	0
attr interpolationmode  none
attr title  "backoff, count"
scalar gridfullhost.switch[1].mac[7] 	collision:count 	0
attr interpolationmode  none
attr title  "collision, count"
scalar gridfullhost.switch[1].mac[7] 	droppedPkNotForUs:count 	0
attr interpolationmode  none
attr source  dropPkNotForUs
attr title  "packets dropped/not for us, count"
scalar gridfullhost.switch[1].mac[7] 	droppedPkNotForUs:sum(packetBytes) 	0
attr interpolationmode  none
attr source  dropPkNotForUs
attr title  "packets dropped/not for us, sum(packetBytes)"
scalar gridfullhost.switch[1].mac[7] 	droppedPkBitError:count 	0
attr interpolationmode  none
attr source  dropPkBitError
attr title  "packets dropped/bit error, count"
scalar gridfullhost.switch[1].mac[7] 	droppedPkBitError:sum(packetBytes) 	0
attr interpolationmode  none
attr source  dropPkBitError
attr title  "packets dropped/bit error, sum(packetBytes)"
scalar gridfullhost.switch[1].mac[7] 	droppedPkIfaceDown:count 	0
attr interpolationmode  none
attr source  dropPkIfaceDown
attr title  "packets dropped/interface down, count"
scalar gridfullhost.switch[1].mac[7] 	droppedPkIfaceDown:sum(packetBytes) 	0
attr interpolationmode  none
attr source  dropPkIfaceDown
attr title  "packets dropped/interface down, sum(packetBytes)"
scalar gridfullhost.switch[1].mac[7] 	rxPkFromHL:count 	9
attr interpolationmode  none
attr source  rxPkFromHL
attr title  "packet bytes from higher layer, count"
scalar gridfullhost.switch[1].mac[7] 	rxPkFromHL:sum(packetBytes) 	576
attr interpolationmode  none
attr source  rxPkFromHL
attr title  "packet bytes from higher layer, sum(packetBytes)"
scalar gridfullhost.switch[1].mac[7] 	rxPausePkUnits:count 	0
attr interpolationmode  none
attr title  "pause units received, count"
scalar gridfullhost.switch[1].mac[7] 	rxPausePkUnits:sum 	0
attr interpolationmode  none
attr title  "pause units received, sum"
scalar gridfullhost.switch[1].mac[7] 	txPausePkUnits:count 	0
attr interpolationmode  none
attr title  "pause units sent, count"
scalar gridfullhost.switch[1].mac[7] 	txPausePkUnits:sum 	0
attr interpolationmode  none
attr title  "pause units sent, sum"
scalar gridfullhost.switch[1].mac[7] 	passedUpPk:count 	0
attr interpolationmode  none
attr source  packetSentToUpper
attr title  "packets passed to higher layer, count"
scalar gridfullhost.switch[1].mac[7] 	passedUpPk:sum(packetBytes) 	0
attr interpolationmode  none
attr source  packetSentToUpper
attr title  "packets passed to higher layer, sum(packetBytes)"
scalar gridfullhost.switch[1].mac[7] 	rxPkOk:count 	0
attr interpolationmode  none
attr source  rxPkOk
attr title  "packets received OK, count"
scalar gridfullhost.switch[1].mac[7] 	rxPkOk:sum(packetBytes) 	0
attr interpolationmode  none
attr source  rxPkOk
attr title  "packets received OK, sum(packetBytes)"
scalar gridfullhost.switch[1].mac[7] 	txPk:count 	9
attr interpolationmode  none
attr source  txPk
attr title  "packets transmitted, count"
scalar gridfullhost.switch[1].mac[7] 	txPk:sum(packetBytes) 	576
attr interpolationmode  none
attr source  txPk
attr title  "packets transmitted, sum(packetBytes)"
scalar gridfullhost.switch[2].relayUnit 	"processed frames" 	18
scalar gridfullhost.switch[2].relayUnit 	"dropped frames" 	0
scalar gridfullhost.switch[2].relayUnit 	"processed frames" 	18
scalar gridfullhost.switch[2].relayUnit 	"dropped frames" 	0
scalar gridfullhost.switch[2].relayUnit 	"retx frames" 	0
scalar gridfullhost.switch[2].relayUnit 	"ARP requests rcvd" 	0
scalar gridfullhost.switch[2].relayUnit 	"ARP replies rcvd" 	0
scalar gridfullhost.switch[2].relayUnit 	"number of reparations" 	0
scalar gridfullhost.switch[2].mac[0] 	"simulated time" 	5.227951348467
scalar gridfullhost.switch[2].mac[0] 	full-duplex 	1
scalar gridfullhost.switch[2].mac[0] 	"frames/sec sent" 	0
scalar gridfullhost.switch[2].mac[0] 	"frames/sec rcvd" 	1.7215156377917
scalar gridfullhost.switch[2].mac[0] 	"bits/sec sent" 	0
scalar gridfullhost.switch[2].mac[0] 	"bits/sec rcvd" 	881.41600654934
scalar gridfullhost.switch[2].mac[0] 	"rx channel idle (%)" 	99.999008406993
scalar gridfullhost.switch[2].mac[0] 	"rx channel utilization (%)" 	0.000991593007368
scalar gridfullhost.switch[2].mac[0] 	"rx channel collision (%)" 	0
scalar gridfullhost.switch[2].mac[0] 	collisions 	0
scalar gridfullhost.switch[2].mac[0] 	backoffs 	0
scalar gridfullhost.switch[2].mac[0] 	"average latency" 	0
scalar gridfullhost.switch[2].mac[0] 	"max latency" 	0
scalar gridfullhost.switch[2].mac[0] 	"min latency" 	100
scalar gridfullhost.switch[2].mac[0] 	"average processing time" 	0
scalar gridfullhost.switch[2].mac[0] 	"max processing time" 	0
scalar gridfullhost.switch[2].mac[0] 	"min processing time" 	100
scalar gridfullhost.switch[2].mac[0] 	"ARP requests rcvd" 	9
scalar gridfullhost.switch[2].mac[0] 	backoff:count 	0
attr interpolationmode  none
attr title  "backoff, count"
scalar gridfullhost.switch[2].mac[0] 	collision:count 	0
attr interpolationmode  none
attr title  "collision, count"
scalar gridfullhost.switch[2].mac[0] 	droppedPkNotForUs:count 	0
attr interpolationmode  none
attr source  dropPkNotForUs
attr title  "packets dropped/not for us, count"
scalar gridfullhost.switch[2].mac[0] 	droppedPkNotForUs:sum(packetBytes) 	0
attr interpolationmode  none
attr source  dropPkNotForUs
attr title  "packets dropped/not for us, sum(packetBytes)"
scalar gridfullhost.switch[2].mac[0] 	droppedPkBitError:count 	0
attr interpolationmode  none
attr source  dropPkBitError
attr title  "packets dropped/bit error, count"
scalar gridfullhost.switch[2].mac[0] 	droppedPkBitError:sum(packetBytes) 	0
attr interpolationmode  none
attr source  dropPkBitError
attr title  "packets dropped/bit error, sum(packetBytes)"
scalar gridfullhost.switch[2].mac[0] 	droppedPkIfaceDown:count 	0
attr interpolationmode  none
attr source  dropPkIfaceDown
attr title  "packets dropped/interface down, count"
scalar gridfullhost.switch[2].mac[0] 	droppedPkIfaceDown:sum(packetBytes) 	0
attr interpolationmode  none
attr source  dropPkIfaceDown
attr title  "packets dropped/interface down, sum(packetBytes)"
scalar gridfullhost.switch[2].mac[0] 	rxPkFromHL:count 	0
attr interpolationmode  none
attr source  rxPkFromHL
attr title  "packet bytes from higher layer, count"
scalar gridfullhost.switch[2].mac[0] 	rxPkFromHL:sum(packetBytes) 	0
attr interpolationmode  none
attr source  rxPkFromHL
attr title  "packet bytes from higher layer, sum(packetBytes)"
scalar gridfullhost.switch[2].mac[0] 	rxPausePkUnits:count 	0
attr interpolationmode  none
attr title  "pause units received, count"
scalar gridfullhost.switch[2].mac[0] 	rxPausePkUnits:sum 	0
attr interpolationmode  none
attr title  "pause units received, sum"
scalar gridfullhost.switch[2].mac[0] 	txPausePkUnits:count 	0
attr interpolationmode  none
attr title  "pause units sent, count"
scalar gridfullhost.switch[2].mac[0] 	txPausePkUnits:sum 	0
attr interpolationmode  none
attr title  "pause units sent, sum"
scalar gridfullhost.switch[2].mac[0] 	passedUpPk:count 	9
attr interpolationmode  none
attr source  packetSentToUpper
attr title  "packets passed to higher layer, count"
scalar gridfullhost.switch[2].mac[0] 	passedUpPk:sum(packetBytes) 	576
attr interpolationmode  none
attr source  packetSentToUpper
attr title  "packets passed to higher layer, sum(packetBytes)"
scalar gridfullhost.switch[2].mac[0] 	rxPkOk:count 	9
attr interpolationmode  none
attr source  rxPkOk
attr title  "packets received OK, count"
scalar gridfullhost.switch[2].mac[0] 	rxPkOk:sum(packetBytes) 	576
attr interpolationmode  none
attr source  rxPkOk
attr title  "packets received OK, sum(packetBytes)"
scalar gridfullhost.switch[2].mac[0] 	txPk:count 	0
attr interpolationmode  none
attr source  txPk
attr title  "packets transmitted, count"
scalar gridfullhost.switch[2].mac[0] 	txPk:sum(packetBytes) 	0
attr interpolationmode  none
attr source  txPk
attr title  "packets transmitted, sum(packetBytes)"
scalar gridfullhost.switch[2].mac[1] 	"simulated time" 	5.227951348467
scalar gridfullhost.switch[2].mac[1] 	full-duplex 	1
scalar gridfullhost.switch[2].mac[1] 	"frames/sec sent" 	1.7215156377917
scalar gridfullhost.switch[2].mac[1] 	"frames/sec rcvd" 	1.7215156377917
scalar gridfullhost.switch[2].mac[1] 	"bits/sec sent" 	881.41600654934
scalar gridfullhost.switch[2].mac[1] 	"bits/sec rcvd" 	881.41600654934
scalar gridfullhost.switch[2].mac[1] 	"rx channel idle (%)" 	99.999008406993
scalar gridfullhost.switch[2].mac[1] 	"rx channel utilization (%)" 	0.000991593007368
scalar gridfullhost.switch[2].mac[1] 	"rx channel collision (%)" 	0
scalar gridfullhost.switch[2].mac[1] 	collisions 	0
scalar gridfullhost.switch[2].mac[1] 	backoffs 	0
scalar gridfullhost.switch[2].mac[1] 	"average latency" 	0
scalar gridfullhost.switch[2].mac[1] 	"max latency" 	0
scalar gridfullhost.switch[2].mac[1] 	"min latency" 	100
scalar gridfullhost.switch[2].mac[1] 	"average processing time" 	0
scalar gridfullhost.switch[2].mac[1] 	"max processing time" 	0
scalar gridfullhost.switch[2].mac[1] 	"min processing time" 	100
scalar gridfullhost.switch[2].mac[1] 	"ARP requests rcvd" 	9
scalar gridfullhost.switch[2].mac[1] 	backoff:count 	0
attr interpolationmode  none
attr title  "backoff, count"
scalar gridfullhost.switch[2].mac[1] 	collision:count 	0
attr interpolationmode  none
attr title  "collision, count"
scalar gridfullhost.switch[2].mac[1] 	droppedPkNotForUs:count 	0
attr interpolationmode  none
attr source  dropPkNotForUs
attr title  "packets dropped/not for us, count"
scalar gridfullhost.switch[2].mac[1] 	droppedPkNotForUs:sum(packetBytes) 	0
attr interpolationmode  none
attr source  dropPkNotForUs
attr title  "packets dropped/not for us, sum(packetBytes)"
scalar gridfullhost.switch[2].mac[1] 	droppedPkBitError:count 	0
attr interpolationmode  none
attr source  dropPkBitError
attr title  "packets dropped/bit error, count"
scalar gridfullhost.switch[2].mac[1] 	droppedPkBitError:sum(packetBytes) 	0
attr interpolationmode  none
attr source  dropPkBitError
attr title  "packets dropped/bit error, sum(packetBytes)"
scalar gridfullhost.switch[2].mac[1] 	droppedPkIfaceDown:count 	0
attr interpolationmode  none
attr source  dropPkIfaceDown
attr title  "packets dropped/interface down, count"
scalar gridfullhost.switch[2].mac[1] 	droppedPkIfaceDown:sum(packetBytes) 	0
attr interpolationmode  none
attr source  dropPkIfaceDown
attr title  "packets dropped/interface down, sum(packetBytes)"
scalar gridfullhost.switch[2].mac[1] 	rxPkFromHL:count 	9
attr interpolationmode  none
attr source  rxPkFromHL
attr title  "packet bytes from higher layer, count"
scalar gridfullhost.switch[2].mac[1] 	rxPkFromHL:sum(packetBytes) 	576
attr interpolationmode  none
attr source  rxPkFromHL
attr title  "packet bytes from higher layer, sum(packetBytes)"
scalar gridfullhost.switch[2].mac[1] 	rxPausePkUnits:count 	0
attr interpolationmode  none
attr title  "pause units received, count"
scalar gridfullhost.switch[2].mac[1] 	rxPausePkUnits:sum 	0
attr interpolationmode  none
attr title  "pause units received, sum"
scalar gridfullhost.switch[2].mac[1] 	txPausePkUnits:count 	0
attr interpolationmode  none
attr title  "pause units sent, count"
scalar gridfullhost.switch[2].mac[1] 	txPausePkUnits:sum 	0
attr interpolationmode  none
attr title  "pause units sent, sum"
scalar gridfullhost.switch[2].mac[1] 	passedUpPk:count 	9
attr interpolationmode  none
attr source  packetSentToUpper
attr title  "packets passed to higher layer, count"
scalar gridfullhost.switch[2].mac[1] 	passedUpPk:sum(packetBytes) 	576
attr interpolationmode  none
attr source  packetSentToUpper
attr title  "packets passed to higher layer, sum(packetBytes)"
scalar gridfullhost.switch[2].mac[1] 	rxPkOk:count 	9
attr interpolationmode  none
attr source  rxPkOk
attr title  "packets received OK, count"
scalar gridfullhost.switch[2].mac[1] 	rxPkOk:sum(packetBytes) 	576
attr interpolationmode  none
attr source  rxPkOk
attr title  "packets received OK, sum(packetBytes)"
scalar gridfullhost.switch[2].mac[1] 	txPk:count 	9
attr interpolationmode  none
attr source  txPk
attr title  "packets transmitted, count"
scalar gridfullhost.switch[2].mac[1] 	txPk:sum(packetBytes) 	576
attr interpolationmode  none
attr source  txPk
attr title  "packets transmitted, sum(packetBytes)"
scalar gridfullhost.switch[2].mac[2] 	"simulated time" 	5.227951348467
scalar gridfullhost.switch[2].mac[2] 	full-duplex 	1
scalar gridfullhost.switch[2].mac[2] 	"frames/sec sent" 	1.7215156377917
scalar gridfullhost.switch[2].mac[2] 	"frames/sec rcvd" 	0
scalar gridfullhost.switch[2].mac[2] 	"bits/sec sent" 	881.41600654934
scalar gridfullhost.switch[2].mac[2] 	"bits/sec rcvd" 	0
scalar gridfullhost.switch[2].mac[2] 	"rx channel idle (%)" 	100
scalar gridfullhost.switch[2].mac[2] 	"rx channel utilization (%)" 	0
scalar gridfullhost.switch[2].mac[2] 	"rx channel collision (%)" 	0
scalar gridfullhost.switch[2].mac[2] 	collisions 	0
scalar gridfullhost.switch[2].mac[2] 	backoffs 	0
scalar gridfullhost.switch[2].mac[2] 	"average latency" 	0
scalar gridfullhost.switch[2].mac[2] 	"max latency" 	0
scalar gridfullhost.switch[2].mac[2] 	"min latency" 	100
scalar gridfullhost.switch[2].mac[2] 	"average processing time" 	0
scalar gridfullhost.switch[2].mac[2] 	"max processing time" 	0
scalar gridfullhost.switch[2].mac[2] 	"min processing time" 	100
scalar gridfullhost.switch[2].mac[2] 	"ARP requests rcvd" 	0
scalar gridfullhost.switch[2].mac[2] 	backoff:count 	0
attr interpolationmode  none
attr title  "backoff, count"
scalar gridfullhost.switch[2].mac[2] 	collision:count 	0
attr interpolationmode  none
attr title  "collision, count"
scalar gridfullhost.switch[2].mac[2] 	droppedPkNotForUs:count 	0
attr interpolationmode  none
attr source  dropPkNotForUs
attr title  "packets dropped/not for us, count"
scalar gridfullhost.switch[2].mac[2] 	droppedPkNotForUs:sum(packetBytes) 	0
attr interpolationmode  none
attr source  dropPkNotForUs
attr title  "packets dropped/not for us, sum(packetBytes)"
scalar gridfullhost.switch[2].mac[2] 	droppedPkBitError:count 	0
attr interpolationmode  none
attr source  dropPkBitError
attr title  "packets dropped/bit error, count"
scalar gridfullhost.switch[2].mac[2] 	droppedPkBitError:sum(packetBytes) 	0
attr interpolationmode  none
attr source  dropPkBitError
attr title  "packets dropped/bit error, sum(packetBytes)"
scalar gridfullhost.switch[2].mac[2] 	droppedPkIfaceDown:count 	0
attr interpolationmode  none
attr source  dropPkIfaceDown
attr title  "packets dropped/interface down, count"
scalar gridfullhost.switch[2].mac[2] 	droppedPkIfaceDown:sum(packetBytes) 	0
attr interpolationmode  none
attr source  dropPkIfaceDown
attr title  "packets dropped/interface down, sum(packetBytes)"
scalar gridfullhost.switch[2].mac[2] 	rxPkFromHL:count 	9
attr interpolationmode  none
attr source  rxPkFromHL
attr title  "packet bytes from higher layer, count"
scalar gridfullhost.switch[2].mac[2] 	rxPkFromHL:sum(packetBytes) 	576
attr interpolationmode  none
attr source  rxPkFromHL
attr title  "packet bytes from higher layer, sum(packetBytes)"
scalar gridfullhost.switch[2].mac[2] 	rxPausePkUnits:count 	0
attr interpolationmode  none
attr title  "pause units received, count"
scalar gridfullhost.switch[2].mac[2] 	rxPausePkUnits:sum 	0
attr interpolationmode  none
attr title  "pause units received, sum"
scalar gridfullhost.switch[2].mac[2] 	txPausePkUnits:count 	0
attr interpolationmode  none
attr title  "pause units sent, count"
scalar gridfullhost.switch[2].mac[2] 	txPausePkUnits:sum 	0
attr interpolationmode  none
attr title  "pause units sent, sum"
scalar gridfullhost.switch[2].mac[2] 	passedUpPk:count 	0
attr interpolationmode  none
attr source  packetSentToUpper
attr title  "packets passed to higher layer, count"
scalar gridfullhost.switch[2].mac[2] 	passedUpPk:sum(packetBytes) 	0
attr interpolationmode  none
attr source  packetSentToUpper
attr title  "packets passed to higher layer, sum(packetBytes)"
scalar gridfullhost.switch[2].mac[2] 	rxPkOk:count 	0
attr interpolationmode  none
attr source  rxPkOk
attr title  "packets received OK, count"
scalar gridfullhost.switch[2].mac[2] 	rxPkOk:sum(packetBytes) 	0
attr interpolationmode  none
attr source  rxPkOk
attr title  "packets received OK, sum(packetBytes)"
scalar gridfullhost.switch[2].mac[2] 	txPk:count 	9
attr interpolationmode  none
attr source  txPk
attr title  "packets transmitted, count"
scalar gridfullhost.switch[2].mac[2] 	txPk:sum(packetBytes) 	576
attr interpolationmode  none
attr source  txPk
attr title  "packets transmitted, sum(packetBytes)"
scalar gridfullhost.switch[2].mac[3] 	"simulated time" 	5.227951348467
scalar gridfullhost.switch[2].mac[3] 	full-duplex 	1
scalar gridfullhost.switch[2].mac[3] 	"frames/sec sent" 	1.7215156377917
scalar gridfullhost.switch[2].mac[3] 	"frames/sec rcvd" 	0
[...]
bin	-0.26666666666667	0
bin	-0.23333333333333	0
bin	-0.2	0
bin	-0.16666666666667	0
bin	-0.13333333333333	0
bin	-0.1	0
bin	-0.066666666666667	0
bin	-0.033333333333333	0
bin	0	0
bin	0.033333333333333	0
bin	0.066666666666667	0
bin	0.1	0
bin	0.13333333333333	0
bin	0.16666666666667	0
bin	0.2	0
bin	0.23333333333333	0
bin	0.26666666666667	0
bin	0.3	0
bin	0.33333333333333	0
bin	0.36666666666667	0
bin	0.4	0
bin	0.43333333333333	0
bin	0.46666666666667	0
bin	0.5	0
scalar gridfullhost.host[43].eth[0].queue.pauseQueue 	dropPk:count 	0
attr interpolationmode  none
attr source  dropPkByQueue
attr title  "dropped packets, count"
scalar gridfullhost.host[43].eth[0].queue.pauseQueue 	dropPk:sum(packetBytes) 	0
attr interpolationmode  none
attr source  dropPkByQueue
attr title  "dropped packets, sum(packetBytes)"
scalar gridfullhost.host[43].eth[0].queue.pauseQueue 	rcvdPk:count 	0
attr interpolationmode  none
attr title  "received packets, count"
scalar gridfullhost.host[43].eth[0].queue.pauseQueue 	rcvdPk:sum(packetBytes) 	0
attr interpolationmode  none
attr title  "received packets, sum(packetBytes)"
scalar gridfullhost.host[43].eth[0].queue.dataQueue 	queueLength:max 	1
attr interpolationmode  sample-hold
attr title  "queue length, max"
scalar gridfullhost.host[43].eth[0].queue.dataQueue 	queueLength:timeavg 	0.0044481209293998
attr interpolationmode  sample-hold
attr title  "queue length, timeavg"
statistic gridfullhost.host[43].eth[0].queue.dataQueue 	queueingTime:histogram
field count 4414
field mean 5.2683642526053e-06
field stddev 2.4911934280253e-05
field sum 0.023254559811
field sqrsum 2.8612410158909e-06
field min 0
field max 0.000123039999
attr interpolationmode  none
attr title  "queueing time, histogram"
bin	-INF	0
bin	-0.5	0
bin	-0.46666666666667	0
bin	-0.43333333333333	0
bin	-0.4	0
bin	-0.36666666666667	0
bin	-0.33333333333333	0
bin	-0.3	0
bin	-0.26666666666667	0
bin	-0.23333333333333	0
bin	-0.2	0
bin	-0.16666666666667	0
bin	-0.13333333333333	0
bin	-0.1	0
bin	-0.066666666666667	0
bin	-0.033333333333333	0
bin	0	4414
bin	0.033333333333333	0
bin	0.066666666666667	0
bin	0.1	0
bin	0.13333333333333	0
bin	0.16666666666667	0
bin	0.2	0
bin	0.23333333333333	0
bin	0.26666666666667	0
bin	0.3	0
bin	0.33333333333333	0
bin	0.36666666666667	0
bin	0.4	0
bin	0.43333333333333	0
bin	0.46666666666667	0
bin	0.5	0
scalar gridfullhost.host[43].eth[0].queue.dataQueue 	dropPk:count 	0
attr interpolationmode  none
attr source  dropPkByQueue
attr title  "dropped packets, count"
scalar gridfullhost.host[43].eth[0].queue.dataQueue 	dropPk:sum(packetBytes) 	0
attr interpolationmode  none
attr source  dropPkByQueue
attr title  "dropped packets, sum(packetBytes)"
scalar gridfullhost.host[43].eth[0].queue.dataQueue 	rcvdPk:count 	4414
attr interpolationmode  none
attr title  "received packets, count"
scalar gridfullhost.host[43].eth[0].queue.dataQueue 	rcvdPk:sum(packetBytes) 	598030
attr interpolationmode  none
attr title  "received packets, sum(packetBytes)"
scalar gridfullhost.host[43].eth[0].mac 	"simulated time" 	5.227951348467
scalar gridfullhost.host[43].eth[0].mac 	full-duplex 	1
scalar gridfullhost.host[43].eth[0].mac 	"frames/sec sent" 	844.30778057916
scalar gridfullhost.host[43].eth[0].mac 	"frames/sec rcvd" 	1581.4990325846
scalar gridfullhost.host[43].eth[0].mac 	"bits/sec sent" 	915127.1083276
scalar gridfullhost.host[43].eth[0].mac 	"bits/sec rcvd" 	9802695.6610886
scalar gridfullhost.host[43].eth[0].mac 	"rx channel idle (%)" 	90.096088400826
scalar gridfullhost.host[43].eth[0].mac 	"rx channel utilization (%)" 	9.9039115991741
scalar gridfullhost.host[43].eth[0].mac 	"rx channel collision (%)" 	0
scalar gridfullhost.host[43].eth[0].mac 	collisions 	0
scalar gridfullhost.host[43].eth[0].mac 	backoffs 	0
scalar gridfullhost.host[43].eth[0].mac 	"average latency" 	0
scalar gridfullhost.host[43].eth[0].mac 	"max latency" 	0
scalar gridfullhost.host[43].eth[0].mac 	"min latency" 	100
scalar gridfullhost.host[43].eth[0].mac 	"average processing time" 	0
scalar gridfullhost.host[43].eth[0].mac 	"max processing time" 	0
scalar gridfullhost.host[43].eth[0].mac 	"min processing time" 	100
scalar gridfullhost.host[43].eth[0].mac 	"ARP requests rcvd" 	9
scalar gridfullhost.host[43].eth[0].mac 	backoff:count 	0
attr interpolationmode  none
attr title  "backoff, count"
scalar gridfullhost.host[43].eth[0].mac 	collision:count 	0
attr interpolationmode  none
attr title  "collision, count"
scalar gridfullhost.host[43].eth[0].mac 	droppedPkNotForUs:count 	0
attr interpolationmode  none
attr source  dropPkNotForUs
attr title  "packets dropped/not for us, count"
scalar gridfullhost.host[43].eth[0].mac 	droppedPkNotForUs:sum(packetBytes) 	0
attr interpolationmode  none
attr source  dropPkNotForUs
attr title  "packets dropped/not for us, sum(packetBytes)"
scalar gridfullhost.host[43].eth[0].mac 	droppedPkBitError:count 	0
attr interpolationmode  none
attr source  dropPkBitError
attr title  "packets dropped/bit error, count"
scalar gridfullhost.host[43].eth[0].mac 	droppedPkBitError:sum(packetBytes) 	0
attr interpolationmode  none
attr source  dropPkBitError
attr title  "packets dropped/bit error, sum(packetBytes)"
scalar gridfullhost.host[43].eth[0].mac 	droppedPkIfaceDown:count 	0
attr interpolationmode  none
attr source  dropPkIfaceDown
attr title  "packets dropped/interface down, count"
scalar gridfullhost.host[43].eth[0].mac 	droppedPkIfaceDown:sum(packetBytes) 	0
attr interpolationmode  none
attr source  dropPkIfaceDown
attr title  "packets dropped/interface down, sum(packetBytes)"
scalar gridfullhost.host[43].eth[0].mac 	rxPkFromHL:count 	4414
attr interpolationmode  none
attr source  rxPkFromHL
attr title  "packet bytes from higher layer, count"
scalar gridfullhost.host[43].eth[0].mac 	rxPkFromHL:sum(packetBytes) 	598030
attr interpolationmode  none
attr source  rxPkFromHL
attr title  "packet bytes from higher layer, sum(packetBytes)"
scalar gridfullhost.host[43].eth[0].mac 	rxPausePkUnits:count 	0
attr interpolationmode  none
attr title  "pause units received, count"
scalar gridfullhost.host[43].eth[0].mac 	rxPausePkUnits:sum 	0
attr interpolationmode  none
attr title  "pause units received, sum"
scalar gridfullhost.host[43].eth[0].mac 	txPausePkUnits:count 	0
attr interpolationmode  none
attr title  "pause units sent, count"
scalar gridfullhost.host[43].eth[0].mac 	txPausePkUnits:sum 	0
attr interpolationmode  none
attr title  "pause units sent, sum"
scalar gridfullhost.host[43].eth[0].mac 	passedUpPk:count 	8268
attr interpolationmode  none
attr source  packetSentToUpper
attr title  "packets passed to higher layer, count"
scalar gridfullhost.host[43].eth[0].mac 	passedUpPk:sum(packetBytes) 	6406002
attr interpolationmode  none
attr source  packetSentToUpper
attr title  "packets passed to higher layer, sum(packetBytes)"
scalar gridfullhost.host[43].eth[0].mac 	rxPkOk:count 	8268
attr interpolationmode  none
attr source  rxPkOk
attr title  "packets received OK, count"
scalar gridfullhost.host[43].eth[0].mac 	rxPkOk:sum(packetBytes) 	6406002
attr interpolationmode  none
attr source  rxPkOk
attr title  "packets received OK, sum(packetBytes)"
scalar gridfullhost.host[43].eth[0].mac 	txPk:count 	4414
attr interpolationmode  none
attr source  txPk
attr title  "packets transmitted, count"
scalar gridfullhost.host[43].eth[0].mac 	txPk:sum(packetBytes) 	598030
attr interpolationmode  none
attr source  txPk
attr title  "packets transmitted, sum(packetBytes)"
scalar gridfullhost.host[43].eth[0].encap 	pauseSent:count 	0
attr title  "pause sent, count"
scalar gridfullhost.host[43].eth[0].encap 	pauseSent:sum 	0
attr title  "pause sent, sum"
scalar gridfullhost.host[43].eth[0].encap 	decapPk:count 	8268
attr interpolationmode  none
attr source  decapPk
attr title  "packets decapsulated, count"
scalar gridfullhost.host[43].eth[0].encap 	decapPk:sum(packetBytes) 	6257016
attr interpolationmode  none
attr source  decapPk
attr title  "packets decapsulated, sum(packetBytes)"
scalar gridfullhost.host[43].eth[0].encap 	encapPk:count 	4414
attr interpolationmode  none
attr source  encapPk
attr title  "packets encapsulated, count"
scalar gridfullhost.host[43].eth[0].encap 	encapPk:sum(packetBytes) 	518560
attr interpolationmode  none
attr source  encapPk
attr title  "packets encapsulated, sum(packetBytes)"
scalar gridfullhost.host[43].udpGen 	"packets sent" 	189
scalar gridfullhost.host[43].udpGen 	"packets received" 	0
scalar gridfullhost.host[43].udp 	droppedPkBadChecksum:count 	0
attr interpolationmode  none
attr title  "packets dropped (checksum error), count"
scalar gridfullhost.host[43].udp 	droppedPkWrongPort:count 	4035
attr interpolationmode  none
attr title  "packets dropped (wrong port), count"
scalar gridfullhost.host[43].udp 	passedUpPk:count 	0
attr interpolationmode  none
attr title  "packets passed up, count"
scalar gridfullhost.host[43].udp 	rcvdPk:count 	4035
attr interpolationmode  none
attr source  rcvdPk
attr title  "packets received, count"
scalar gridfullhost.host[43].udp 	rcvdPk:sum(packetBytes) 	6084780
attr interpolationmode  none
attr source  rcvdPk
attr title  "packets received, sum(packetBytes)"
scalar gridfullhost.host[43].udp 	sentPk:count 	189
attr interpolationmode  none
attr source  sentPk
attr title  "packets sent, count"
scalar gridfullhost.host[43].udp 	sentPk:sum(packetBytes) 	285012
attr interpolationmode  none
attr source  sentPk
attr title  "packets sent, sum(packetBytes)"
scalar gridfullhost.host[44].networkLayer.arp 	failedResolution:count 	0
attr title  "ARP failed resolutions, count"
scalar gridfullhost.host[44].networkLayer.arp 	initiatedResolution:count 	0
attr title  "ARP initiated resolutions, count"
scalar gridfullhost.host[44].networkLayer.arp 	sentReplies:count 	0
attr title  "ARP replies sent, count"
scalar gridfullhost.host[44].networkLayer.arp 	sentReq:count 	0
attr title  "ARP request sent, count"
scalar gridfullhost.host[44].eth[0].queue.pauseQueue 	queueLength:max 	0
attr interpolationmode  sample-hold
attr title  "queue length, max"
scalar gridfullhost.host[44].eth[0].queue.pauseQueue 	queueLength:timeavg 	0
attr interpolationmode  sample-hold
attr title  "queue length, timeavg"
statistic gridfullhost.host[44].eth[0].queue.pauseQueue 	queueingTime:histogram
field count 0
field mean 0
field stddev -nan
field sum 0
field sqrsum 0
field min 0
field max 0
attr interpolationmode  none
attr title  "queueing time, histogram"
bin	-INF	0
bin	-0.5	0
bin	-0.46666666666667	0
bin	-0.43333333333333	0
bin	-0.4	0
bin	-0.36666666666667	0
bin	-0.33333333333333	0
bin	-0.3	0
bin	-0.26666666666667	0
bin	-0.23333333333333	0
bin	-0.2	0
bin	-0.16666666666667	0
bin	-0.13333333333333	0
bin	-0.1	0
bin	-0.066666666666667	0
bin	-0.033333333333333	0
bin	0	0
bin	0.033333333333333	0
bin	0.066666666666667	0
bin	0.1	0
bin	0.13333333333333	0
bin	0.16666666666667	0
bin	0.2	0
bin	0.23333333333333	0
bin	0.26666666666667	0
bin	0.3	0
bin	0.33333333333333	0
bin	0.36666666666667	0
bin	0.4	0
bin	0.43333333333333	0
bin	0.46666666666667	0
bin	0.5	0
scalar gridfullhost.host[44].eth[0].queue.pauseQueue 	dropPk:count 	0
attr interpolationmode  none
attr source  dropPkByQueue
attr title  "dropped packets, count"
scalar gridfullhost.host[44].eth[0].queue.pauseQueue 	dropPk:sum(packetBytes) 	0
attr interpolationmode  none
attr source  dropPkByQueue
attr title  "dropped packets, sum(packetBytes)"
scalar gridfullhost.host[44].eth[0].queue.pauseQueue 	rcvdPk:count 	0
attr interpolationmode  none
attr title  "received packets, count"
scalar gridfullhost.host[44].eth[0].queue.pauseQueue 	rcvdPk:sum(packetBytes) 	0
attr interpolationmode  none
attr title  "received packets, sum(packetBytes)"
scalar gridfullhost.host[44].eth[0].queue.dataQueue 	queueLength:max 	1
attr interpolationmode  sample-hold
attr title  "queue length, max"
scalar gridfullhost.host[44].eth[0].queue.dataQueue 	queueLength:timeavg 	0.0036008597999903
attr interpolationmode  sample-hold
attr title  "queue length, timeavg"
statistic gridfullhost.host[44].eth[0].queue.dataQueue 	queueingTime:histogram
field count 725
field mean 2.5965682547586e-05
field stddev 5.0240246590375e-05
field sum 0.018825119847
field sqrsum 2.3162427271498e-06
field min 0
field max 0.000123039999
attr interpolationmode  none
attr title  "queueing time, histogram"
bin	-INF	0
bin	-0.5	0
bin	-0.46666666666667	0
bin	-0.43333333333333	0
bin	-0.4	0
bin	-0.36666666666667	0
bin	-0.33333333333333	0
bin	-0.3	0
bin	-0.26666666666667	0
bin	-0.23333333333333	0
bin	-0.2	0
bin	-0.16666666666667	0
bin	-0.13333333333333	0
bin	-0.1	0
bin	-0.066666666666667	0
bin	-0.033333333333333	0
bin	0	725
bin	0.033333333333333	0
bin	0.066666666666667	0
bin	0.1	0
bin	0.13333333333333	0
bin	0.16666666666667	0
bin	0.2	0
bin	0.23333333333333	0
bin	0.26666666666667	0
bin	0.3	0
bin	0.33333333333333	0
bin	0.36666666666667	0
bin	0.4	0
bin	0.43333333333333	0
bin	0.46666666666667	0
bin	0.5	0
scalar gridfullhost.host[44].eth[0].queue.dataQueue 	dropPk:count 	0
attr interpolationmode  none
attr source  dropPkByQueue
attr title  "dropped packets, count"
scalar gridfullhost.host[44].eth[0].queue.dataQueue 	dropPk:sum(packetBytes) 	0
attr interpolationmode  none
attr source  dropPkByQueue
attr title  "dropped packets, sum(packetBytes)"
scalar gridfullhost.host[44].eth[0].queue.dataQueue 	rcvdPk:count 	725
attr interpolationmode  none
attr title  "received packets, count"
scalar gridfullhost.host[44].eth[0].queue.dataQueue 	rcvdPk:sum(packetBytes) 	273348
attr interpolationmode  none
attr title  "received packets, sum(packetBytes)"
scalar gridfullhost.host[44].eth[0].mac 	"simulated time" 	5.227951348467
scalar gridfullhost.host[44].eth[0].mac 	full-duplex 	1
scalar gridfullhost.host[44].eth[0].mac 	"frames/sec sent" 	138.67764859988
scalar gridfullhost.host[44].eth[0].mac 	"frames/sec rcvd" 	190.89695627957
scalar gridfullhost.host[44].eth[0].mac 	"bits/sec sent" 	418286.98360807
scalar gridfullhost.host[44].eth[0].mac 	"bits/sec rcvd" 	1031394.4489137
scalar gridfullhost.host[44].eth[0].mac 	"rx channel idle (%)" 	98.956388145884
scalar gridfullhost.host[44].eth[0].mac 	"rx channel utilization (%)" 	1.0436118541156
scalar gridfullhost.host[44].eth[0].mac 	"rx channel collision (%)" 	0
scalar gridfullhost.host[44].eth[0].mac 	collisions 	0
scalar gridfullhost.host[44].eth[0].mac 	backoffs 	0
scalar gridfullhost.host[44].eth[0].mac 	"average latency" 	0
scalar gridfullhost.host[44].eth[0].mac 	"max latency" 	0
scalar gridfullhost.host[44].eth[0].mac 	"min latency" 	100
scalar gridfullhost.host[44].eth[0].mac 	"average processing time" 	0
scalar gridfullhost.host[44].eth[0].mac 	"max processing time" 	0
scalar gridfullhost.host[44].eth[0].mac 	"min processing time" 	100
scalar gridfullhost.host[44].eth[0].mac 	"ARP requests rcvd" 	9
scalar gridfullhost.host[44].eth[0].mac 	backoff:count 	0
attr interpolationmode  none
attr title  "backoff, count"
scalar gridfullhost.host[44].eth[0].mac 	collision:count 	0
attr interpolationmode  none
attr title  "collision, count"
scalar gridfullhost.host[44].eth[0].mac 	droppedPkNotForUs:count 	0
attr interpolationmode  none
attr source  dropPkNotForUs
attr title  "packets dropped/not for us, count"
scalar gridfullhost.host[44].eth[0].mac 	droppedPkNotForUs:sum(packetBytes) 	0
attr interpolationmode  none
attr source  dropPkNotForUs
attr title  "packets dropped/not for us, sum(packetBytes)"
scalar gridfullhost.host[44].eth[0].mac 	droppedPkBitError:count 	0
attr interpolationmode  none
attr source  dropPkBitError
attr title  "packets dropped/bit error, count"
scalar gridfullhost.host[44].eth[0].mac 	droppedPkBitError:sum(packetBytes) 	0
attr interpolationmode  none
attr source  dropPkBitError
attr title  "packets dropped/bit error, sum(packetBytes)"
scalar gridfullhost.host[44].eth[0].mac 	droppedPkIfaceDown:count 	0
attr interpolationmode  none
attr source  dropPkIfaceDown
attr title  "packets dropped/interface down, count"
scalar gridfullhost.host[44].eth[0].mac 	droppedPkIfaceDown:sum(packetBytes) 	0
attr interpolationmode  none
attr source  dropPkIfaceDown
attr title  "packets dropped/interface down, sum(packetBytes)"
scalar gridfullhost.host[44].eth[0].mac 	rxPkFromHL:count 	725
attr interpolationmode  none
attr source  rxPkFromHL
attr title  "packet bytes from higher layer, count"
scalar gridfullhost.host[44].eth[0].mac 	rxPkFromHL:sum(packetBytes) 	273348
attr interpolationmode  none
attr source  rxPkFromHL
attr title  "packet bytes from higher layer, sum(packetBytes)"
scalar gridfullhost.host[44].eth[0].mac 	rxPausePkUnits:count 	0
attr interpolationmode  none
attr title  "pause units received, count"
scalar gridfullhost.host[44].eth[0].mac 	rxPausePkUnits:sum 	0
attr interpolationmode  none
attr title  "pause units received, sum"
scalar gridfullhost.host[44].eth[0].mac 	txPausePkUnits:count 	0
attr interpolationmode  none
attr title  "pause units sent, count"
scalar gridfullhost.host[44].eth[0].mac 	txPausePkUnits:sum 	0
attr interpolationmode  none
attr title  "pause units sent, sum"
scalar gridfullhost.host[44].eth[0].mac 	passedUpPk:count 	998
attr interpolationmode  none
attr source  packetSentToUpper
attr title  "packets passed to higher layer, count"
scalar gridfullhost.host[44].eth[0].mac 	passedUpPk:sum(packetBytes) 	674010
attr interpolationmode  none
attr source  packetSentToUpper
attr title  "packets passed to higher layer, sum(packetBytes)"
scalar gridfullhost.host[44].eth[0].mac 	rxPkOk:count 	998
attr interpolationmode  none
attr source  rxPkOk
attr title  "packets received OK, count"
scalar gridfullhost.host[44].eth[0].mac 	rxPkOk:sum(packetBytes) 	674010
attr interpolationmode  none
attr source  rxPkOk
attr title  "packets received OK, sum(packetBytes)"
scalar gridfullhost.host[44].eth[0].mac 	txPk:count 	725
attr interpolationmode  none
attr source  txPk
attr title  "packets transmitted, count"
scalar gridfullhost.host[44].eth[0].mac 	txPk:sum(packetBytes) 	273348
attr interpolationmode  none
attr source  txPk
attr title  "packets transmitted, sum(packetBytes)"
scalar gridfullhost.host[44].eth[0].encap 	pauseSent:count 	0
attr title  "pause sent, count"
scalar gridfullhost.host[44].eth[0].encap 	pauseSent:sum 	0
attr title  "pause sent, sum"
scalar gridfullhost.host[44].eth[0].encap 	decapPk:count 	998
attr interpolationmode  none
attr source  decapPk
attr title  "packets decapsulated, count"
scalar gridfullhost.host[44].eth[0].encap 	decapPk:sum(packetBytes) 	655884
attr interpolationmode  none
attr source  decapPk
attr title  "packets decapsulated, sum(packetBytes)"
scalar gridfullhost.host[44].eth[0].encap 	encapPk:count 	725
attr interpolationmode  none
attr source  encapPk
attr title  "packets encapsulated, count"
scalar gridfullhost.host[44].eth[0].encap 	encapPk:sum(packetBytes) 	260280
attr interpolationmode  none
attr source  encapPk
attr title  "packets encapsulated, sum(packetBytes)"
scalar gridfullhost.host[44].udpGen 	"packets sent" 	153
scalar gridfullhost.host[44].udpGen 	"packets received" 	0
scalar gridfullhost.host[44].udp 	droppedPkBadChecksum:count 	0
attr interpolationmode  none
attr title  "packets dropped (checksum error), count"
scalar gridfullhost.host[44].udp 	droppedPkWrongPort:count 	418
attr interpolationmode  none
attr title  "packets dropped (wrong port), count"
scalar gridfullhost.host[44].udp 	passedUpPk:count 	0
attr interpolationmode  none
attr title  "packets passed up, count"
scalar gridfullhost.host[44].udp 	rcvdPk:count 	418
attr interpolationmode  none
attr source  rcvdPk
attr title  "packets received, count"
scalar gridfullhost.host[44].udp 	rcvdPk:sum(packetBytes) 	630344
attr interpolationmode  none
attr source  rcvdPk
attr title  "packets received, sum(packetBytes)"
scalar gridfullhost.host[44].udp 	sentPk:count 	153
attr interpolationmode  none
attr source  sentPk
attr title  "packets sent, count"
scalar gridfullhost.host[44].udp 	sentPk:sum(packetBytes) 	230724
attr interpolationmode  none
attr source  sentPk
attr title  "packets sent, sum(packetBytes)"
