version 2
run MulticastPath_singleserver-0-20171219-23:06:13-9956
attr configname MulticastPath_singleserver
attr datetime 20171219-23:06:13
attr experiment MulticastPath_singleserver
attr inifile Tree.ini
attr iterationvars ""
attr iterationvarsf ""
attr measurement ""
attr network TreeLAN
attr processid 9956
attr repetition 0
attr replication #0
attr resultdir results
attr runnumber 0
attr seedset 0
param *.switch*.relayUnit.isArpPath false
param *.switch*.relayUnit.isArpPathLinkFail false
param *.switch*.relayUnit.isIndependentPath false
param *.switch*.relayUnit.isRerouteArpPath false
param *.switch*.relayUnit.isLowResArpPath false
param *.switch*.relayUnit.isUsingL3inL2 false
param *.switch*.relayUnit.isOurFlowPath false
param *.switch*.relayUnit.isMulticastPath true
param **.ip.independentofARP false
param *.host1.numPingApps 2
param *.host1.pingApp[0].destAddr "\"server1\""
param *.host1.pingApp[1].destAddr "\"server2\""
param *.host1.pingApp[0].startTime 1s
param *.host1.pingApp[1].startTime 2s
param *.host1.pingApp[*].sendInterval 3s
param **.eth[*].mac.duplexMode true
param **.eth[*].macType "\"EtherMACFullDuplexNew\""
param **.eth[*].queueType "\"DropTailQueue\""
param **.switch*.relayUnitType "\"MACRelayUnitAPB\""
param **.macTable.agingTime 120s
param **.relayUnit.learningTableAgingTime 120s
param **.relayUnit.blockingTableAgingTime 120s

scalar TreeLAN.host1.networkLayer.arp sentReply:count 0
attr title "ARP replies sent, count"
scalar TreeLAN.host1.networkLayer.arp sentReq:count 2
attr title "ARP request sent, count"
scalar TreeLAN.host1.networkLayer.arp failedARPResolution:count 0
attr title "ARP failed resolutions, count"
scalar TreeLAN.host1.networkLayer.arp completedARPResolution:count 2
attr title "ARP completed resolutions, count"
scalar TreeLAN.host1.networkLayer.arp initiatedARPResolution:count 2
attr title "ARP initiated resolutions, count"
scalar TreeLAN.host1.lo0.lo droppedPkBitError:count 0
attr interpolationmode none
attr source dropPkBitError
attr title "packets dropped/bit error, count"
scalar TreeLAN.host1.lo0.lo droppedPkBitError:sum(packetBytes) 0
attr interpolationmode none
attr source dropPkBitError
attr title "packets dropped/bit error, sum(packetBytes)"
scalar TreeLAN.host1.lo0.lo rcvdPkFromHL:count 0
attr interpolationmode none
attr source packetReceivedFromUpper
attr title "packets received from higher layer, count"
scalar TreeLAN.host1.lo0.lo rcvdPkFromHL:sum(packetBytes) 0
attr interpolationmode none
attr source packetReceivedFromUpper
attr title "packets received from higher layer, sum(packetBytes)"
scalar TreeLAN.host1.lo0.lo passedUpPk:count 0
attr interpolationmode none
attr source packetSentToUpper
attr title "packets passed to higher layer, count"
scalar TreeLAN.host1.lo0.lo passedUpPk:sum(packetBytes) 0
attr interpolationmode none
attr source packetSentToUpper
attr title "packets passed to higher layer, sum(packetBytes)"
scalar TreeLAN.host1.eth[0].queue.pauseQueue queueLength:max 0
attr interpolationmode sample-hold
attr title "queue length, max"
scalar TreeLAN.host1.eth[0].queue.pauseQueue queueLength:timeavg 0
attr interpolationmode sample-hold
attr title "queue length, timeavg"
statistic TreeLAN.host1.eth[0].queue.pauseQueue queueingTime:histogram
field count 0
field mean nan
field stddev nan
field min nan
field max nan
field sum 0
field sqrsum 0
attr interpolationmode none
attr title "queueing time, histogram"
bin	-inf	0
bin	-0.5	0
bin	-0.46666666666667	0
bin	-0.43333333333333	0
bin	-0.4	0
bin	-0.36666666666667	0
bin	-0.33333333333333	0
bin	-0.3	0
bin	-0.26666666666667	0
bin	-0.23333333333333	0
bin	-0.2	0
bin	-0.16666666666667	0
bin	-0.13333333333333	0
bin	-0.1	0
bin	-0.066666666666667	0
bin	-0.033333333333333	0
bin	-6.9388939039072e-018	0
bin	0.033333333333333	0
bin	0.066666666666667	0
bin	0.1	0
bin	0.13333333333333	0
bin	0.16666666666667	0
bin	0.2	0
bin	0.23333333333333	0
bin	0.26666666666667	0
bin	0.3	0
bin	0.33333333333333	0
bin	0.36666666666667	0
bin	0.4	0
bin	0.43333333333333	0
bin	0.46666666666667	0
bin	0.5	0
scalar TreeLAN.host1.eth[0].queue.pauseQueue dropPk:count 0
attr interpolationmode none
attr source dropPkByQueue
attr title "dropped packets, count"
scalar TreeLAN.host1.eth[0].queue.pauseQueue dropPk:sum(packetBytes) 0
attr interpolationmode none
attr source dropPkByQueue
attr title "dropped packets, sum(packetBytes)"
scalar TreeLAN.host1.eth[0].queue.pauseQueue rcvdPk:count 0
attr interpolationmode none
attr title "received packets, count"
scalar TreeLAN.host1.eth[0].queue.pauseQueue rcvdPk:sum(packetBytes) 0
attr interpolationmode none
attr title "received packets, sum(packetBytes)"
scalar TreeLAN.host1.eth[0].queue.dataQueue queueLength:max 1
attr interpolationmode sample-hold
attr title "queue length, max"
scalar TreeLAN.host1.eth[0].queue.dataQueue queueLength:timeavg 0
attr interpolationmode sample-hold
attr title "queue length, timeavg"
statistic TreeLAN.host1.eth[0].queue.dataQueue queueingTime:histogram
field count 4
field mean 0
field stddev 0
field min 0
field max 0
field sum 0
field sqrsum 0
attr interpolationmode none
attr title "queueing time, histogram"
bin	-inf	0
bin	-0.5	0
bin	-0.46666666666667	0
bin	-0.43333333333333	0
bin	-0.4	0
bin	-0.36666666666667	0
bin	-0.33333333333333	0
bin	-0.3	0
bin	-0.26666666666667	0
bin	-0.23333333333333	0
bin	-0.2	0
bin	-0.16666666666667	0
bin	-0.13333333333333	0
bin	-0.1	0
bin	-0.066666666666667	0
bin	-0.033333333333333	0
bin	-6.9388939039072e-018	4
bin	0.033333333333333	0
bin	0.066666666666667	0
bin	0.1	0
bin	0.13333333333333	0
bin	0.16666666666667	0
bin	0.2	0
bin	0.23333333333333	0
bin	0.26666666666667	0
bin	0.3	0
bin	0.33333333333333	0
bin	0.36666666666667	0
bin	0.4	0
bin	0.43333333333333	0
bin	0.46666666666667	0
bin	0.5	0
scalar TreeLAN.host1.eth[0].queue.dataQueue dropPk:count 0
attr interpolationmode none
attr source dropPkByQueue
attr title "dropped packets, count"
scalar TreeLAN.host1.eth[0].queue.dataQueue dropPk:sum(packetBytes) 0
attr interpolationmode none
attr source dropPkByQueue
attr title "dropped packets, sum(packetBytes)"
scalar TreeLAN.host1.eth[0].queue.dataQueue rcvdPk:count 4
attr interpolationmode none
attr title "received packets, count"
scalar TreeLAN.host1.eth[0].queue.dataQueue rcvdPk:sum(packetBytes) 332
attr interpolationmode none
attr title "received packets, sum(packetBytes)"
scalar TreeLAN.host1.eth[0].mac "simulated time" 2.000097089047
scalar TreeLAN.host1.eth[0].mac full-duplex 1
scalar TreeLAN.host1.eth[0].mac "frames/sec sent" 1.9999029156659
scalar TreeLAN.host1.eth[0].mac "frames/sec rcvd" 1.4999271867494
scalar TreeLAN.host1.eth[0].mac "bits/sec sent" 1327.9355360022
scalar TreeLAN.host1.eth[0].mac "bits/sec rcvd" 919.95534120632
scalar TreeLAN.host1.eth[0].mac "rx channel idle (%)" 99.998984049319
scalar TreeLAN.host1.eth[0].mac "rx channel utilization (%)" 0.0010159506811583
scalar TreeLAN.host1.eth[0].mac rxPkFromHL:count 4
attr interpolationmode none
attr source rxPkFromHL
attr title "packet bytes from higher layer, count"
scalar TreeLAN.host1.eth[0].mac rxPkFromHL:sum(packetBytes) 332
attr interpolationmode none
attr source rxPkFromHL
attr title "packet bytes from higher layer, sum(packetBytes)"
scalar TreeLAN.host1.eth[0].mac rxPausePkUnits:count 0
attr interpolationmode none
attr title "pause units received, count"
scalar TreeLAN.host1.eth[0].mac rxPausePkUnits:sum 0
attr interpolationmode none
attr title "pause units received, sum"
scalar TreeLAN.host1.eth[0].mac txPausePkUnits:count 0
attr interpolationmode none
attr title "pause units sent, count"
scalar TreeLAN.host1.eth[0].mac txPausePkUnits:sum 0
attr interpolationmode none
attr title "pause units sent, sum"
scalar TreeLAN.host1.eth[0].mac txPk:count 4
attr interpolationmode none
attr source txPk
attr title "packets transmitted, count"
scalar TreeLAN.host1.eth[0].mac txPk:sum(packetBytes) 332
attr interpolationmode none
attr source txPk
attr title "packets transmitted, sum(packetBytes)"
scalar TreeLAN.host1.eth[0].mac droppedPkNotForUs:count 0
attr interpolationmode none
attr source dropPkNotForUs
attr title "packets dropped/not for us, count"
scalar TreeLAN.host1.eth[0].mac droppedPkNotForUs:sum(packetBytes) 0
attr interpolationmode none
attr source dropPkNotForUs
attr title "packets dropped/not for us, sum(packetBytes)"
scalar TreeLAN.host1.eth[0].mac droppedPkBitError:count 0
attr interpolationmode none
attr source dropPkBitError
attr title "packets dropped/bit error, count"
scalar TreeLAN.host1.eth[0].mac droppedPkBitError:sum(packetBytes) 0
attr interpolationmode none
attr source dropPkBitError
attr title "packets dropped/bit error, sum(packetBytes)"
scalar TreeLAN.host1.eth[0].mac droppedPkIfaceDown:count 0
attr interpolationmode none
attr source dropPkIfaceDown
attr title "packets dropped/interface down, count"
scalar TreeLAN.host1.eth[0].mac droppedPkIfaceDown:sum(packetBytes) 0
attr interpolationmode none
attr source dropPkIfaceDown
attr title "packets dropped/interface down, sum(packetBytes)"
scalar TreeLAN.host1.eth[0].mac rxPkOk:count 3
attr interpolationmode none
attr source rxPkOk
attr title "packets received OK, count"
scalar TreeLAN.host1.eth[0].mac rxPkOk:sum(packetBytes) 230
attr interpolationmode none
attr source rxPkOk
attr title "packets received OK, sum(packetBytes)"
scalar TreeLAN.host1.eth[0].mac passedUpPk:count 3
attr interpolationmode none
attr source packetSentToUpper
attr title "packets passed to higher layer, count"
scalar TreeLAN.host1.eth[0].mac passedUpPk:sum(packetBytes) 230
attr interpolationmode none
attr source packetSentToUpper
attr title "packets passed to higher layer, sum(packetBytes)"
scalar TreeLAN.host1.eth[0].encap pauseSent:count 0
attr title "pause sent, count"
scalar TreeLAN.host1.eth[0].encap pauseSent:sum 0
attr title "pause sent, sum"
scalar TreeLAN.host1.eth[0].encap decapPk:count 3
attr interpolationmode none
attr source decapPk
attr title "packets decapsulated, count"
scalar TreeLAN.host1.eth[0].encap decapPk:sum(packetBytes) 140
attr interpolationmode none
attr source decapPk
attr title "packets decapsulated, sum(packetBytes)"
scalar TreeLAN.host1.eth[0].encap encapPk:count 4
attr interpolationmode none
attr source encapPk
attr title "packets encapsulated, count"
scalar TreeLAN.host1.eth[0].encap encapPk:sum(packetBytes) 224
attr interpolationmode none
attr source encapPk
attr title "packets encapsulated, sum(packetBytes)"
scalar TreeLAN.host1.pingApp[0] "Pings sent" 1
scalar TreeLAN.host1.pingApp[0] "ping loss rate (%)" 0
scalar TreeLAN.host1.pingApp[0] "ping out-of-order rate (%)" 0
scalar TreeLAN.host1.pingApp[0] pingRxSeq:count 1
attr interpolationmode none
attr title "ping rx seq, count"
scalar TreeLAN.host1.pingApp[0] pingTxSeq:count 1
attr interpolationmode none
attr title "ping tx seq, count"
scalar TreeLAN.host1.pingApp[0] numOutOfOrderArrivals:last nan
attr interpolationmode none
attr title "ping out-of-order arrivals, last"
scalar TreeLAN.host1.pingApp[0] numLost:last nan
attr interpolationmode none
attr title "pings lost, last"
statistic TreeLAN.host1.pingApp[0] rtt:histogram
field count 1
field mean 0.00017712
field stddev nan
field min 0.00017712
field max 0.00017712
field sum 0.00017712
field sqrsum 3.13714944e-008
attr interpolationmode none
attr title "ping round-trip time, histogram"
attr unit s
bin	-inf	0
bin	-0.49982288	0
bin	-0.46648954666667	0
bin	-0.43315621333333	0
bin	-0.39982288	0
bin	-0.36648954666667	0
bin	-0.33315621333333	0
bin	-0.29982288	0
bin	-0.26648954666667	0
bin	-0.23315621333333	0
bin	-0.19982288	0
bin	-0.16648954666667	0
bin	-0.13315621333333	0
bin	-0.09982288	0
bin	-0.066489546666667	0
bin	-0.033156213333333	0
bin	0.00017711999999997	1
bin	0.033510453333333	0
bin	0.066843786666667	0
bin	0.10017712	0
bin	0.13351045333333	0
bin	0.16684378666667	0
bin	0.20017712	0
bin	0.23351045333333	0
bin	0.26684378666667	0
bin	0.30017712	0
bin	0.33351045333333	0
bin	0.36684378666667	0
bin	0.40017712	0
bin	0.43351045333333	0
bin	0.46684378666667	0
bin	0.50017712	0
scalar TreeLAN.host1.pingApp[1] "Pings sent" 1
scalar TreeLAN.host1.pingApp[1] "ping loss rate (%)" 100
scalar TreeLAN.host1.pingApp[1] "ping out-of-order rate (%)" 0
scalar TreeLAN.host1.pingApp[1] pingRxSeq:count 0
attr interpolationmode none
attr title "ping rx seq, count"
scalar TreeLAN.host1.pingApp[1] pingTxSeq:count 1
attr interpolationmode none
attr title "ping tx seq, count"
scalar TreeLAN.host1.pingApp[1] numOutOfOrderArrivals:last nan
attr interpolationmode none
attr title "ping out-of-order arrivals, last"
scalar TreeLAN.host1.pingApp[1] numLost:last nan
attr interpolationmode none
attr title "pings lost, last"
statistic TreeLAN.host1.pingApp[1] rtt:histogram
field count 0
field mean nan
field stddev nan
field min nan
field max nan
field sum 0
field sqrsum 0
attr interpolationmode none
attr title "ping round-trip time, histogram"
attr unit s
bin	-inf	0
bin	-0.5	0
bin	-0.46666666666667	0
bin	-0.43333333333333	0
bin	-0.4	0
bin	-0.36666666666667	0
bin	-0.33333333333333	0
bin	-0.3	0
bin	-0.26666666666667	0
bin	-0.23333333333333	0
bin	-0.2	0
bin	-0.16666666666667	0
bin	-0.13333333333333	0
bin	-0.1	0
bin	-0.066666666666667	0
bin	-0.033333333333333	0
bin	-6.9388939039072e-018	0
bin	0.033333333333333	0
bin	0.066666666666667	0
bin	0.1	0
bin	0.13333333333333	0
bin	0.16666666666667	0
bin	0.2	0
bin	0.23333333333333	0
bin	0.26666666666667	0
bin	0.3	0
bin	0.33333333333333	0
bin	0.36666666666667	0
bin	0.4	0
bin	0.43333333333333	0
bin	0.46666666666667	0
bin	0.5	0
scalar TreeLAN.host2.networkLayer.arp sentReply:count 0
attr title "ARP replies sent, count"
scalar TreeLAN.host2.networkLayer.arp sentReq:count 0
attr title "ARP request sent, count"
scalar TreeLAN.host2.networkLayer.arp failedARPResolution:count 0
attr title "ARP failed resolutions, count"
scalar TreeLAN.host2.networkLayer.arp completedARPResolution:count 0
attr title "ARP completed resolutions, count"
scalar TreeLAN.host2.networkLayer.arp initiatedARPResolution:count 0
attr title "ARP initiated resolutions, count"
scalar TreeLAN.host2.lo0.lo droppedPkBitError:count 0
attr interpolationmode none
attr source dropPkBitError
attr title "packets dropped/bit error, count"
scalar TreeLAN.host2.lo0.lo droppedPkBitError:sum(packetBytes) 0
attr interpolationmode none
attr source dropPkBitError
attr title "packets dropped/bit error, sum(packetBytes)"
scalar TreeLAN.host2.lo0.lo rcvdPkFromHL:count 0
attr interpolationmode none
attr source packetReceivedFromUpper
attr title "packets received from higher layer, count"
scalar TreeLAN.host2.lo0.lo rcvdPkFromHL:sum(packetBytes) 0
attr interpolationmode none
attr source packetReceivedFromUpper
attr title "packets received from higher layer, sum(packetBytes)"
scalar TreeLAN.host2.lo0.lo passedUpPk:count 0
attr interpolationmode none
attr source packetSentToUpper
attr title "packets passed to higher layer, count"
scalar TreeLAN.host2.lo0.lo passedUpPk:sum(packetBytes) 0
attr interpolationmode none
attr source packetSentToUpper
attr title "packets passed to higher layer, sum(packetBytes)"
scalar TreeLAN.host2.eth[0].queue.pauseQueue queueLength:max 0
attr interpolationmode sample-hold
attr title "queue length, max"
scalar TreeLAN.host2.eth[0].queue.pauseQueue queueLength:timeavg 0
attr interpolationmode sample-hold
attr title "queue length, timeavg"
statistic TreeLAN.host2.eth[0].queue.pauseQueue queueingTime:histogram
field count 0
field mean nan
field stddev nan
field min nan
field max nan
field sum 0
field sqrsum 0
attr interpolationmode none
attr title "queueing time, histogram"
bin	-inf	0
bin	-0.5	0
bin	-0.46666666666667	0
bin	-0.43333333333333	0
bin	-0.4	0
bin	-0.36666666666667	0
bin	-0.33333333333333	0
bin	-0.3	0
bin	-0.26666666666667	0
bin	-0.23333333333333	0
bin	-0.2	0
bin	-0.16666666666667	0
bin	-0.13333333333333	0
bin	-0.1	0
bin	-0.066666666666667	0
bin	-0.033333333333333	0
bin	-6.9388939039072e-018	0
bin	0.033333333333333	0
bin	0.066666666666667	0
bin	0.1	0
bin	0.13333333333333	0
bin	0.16666666666667	0
bin	0.2	0
bin	0.23333333333333	0
bin	0.26666666666667	0
bin	0.3	0
bin	0.33333333333333	0
bin	0.36666666666667	0
bin	0.4	0
bin	0.43333333333333	0
bin	0.46666666666667	0
bin	0.5	0
scalar TreeLAN.host2.eth[0].queue.pauseQueue dropPk:count 0
attr interpolationmode none
attr source dropPkByQueue
attr title "dropped packets, count"
scalar TreeLAN.host2.eth[0].queue.pauseQueue dropPk:sum(packetBytes) 0
attr interpolationmode none
attr source dropPkByQueue
attr title "dropped packets, sum(packetBytes)"
scalar TreeLAN.host2.eth[0].queue.pauseQueue rcvdPk:count 0
attr interpolationmode none
attr title "received packets, count"
scalar TreeLAN.host2.eth[0].queue.pauseQueue rcvdPk:sum(packetBytes) 0
attr interpolationmode none
attr title "received packets, sum(packetBytes)"
scalar TreeLAN.host2.eth[0].queue.dataQueue queueLength:max 0
attr interpolationmode sample-hold
attr title "queue length, max"
scalar TreeLAN.host2.eth[0].queue.dataQueue queueLength:timeavg 0
attr interpolationmode sample-hold
attr title "queue length, timeavg"
statistic TreeLAN.host2.eth[0].queue.dataQueue queueingTime:histogram
field count 0
field mean nan
field stddev nan
field min nan
field max nan
field sum 0
field sqrsum 0
attr interpolationmode none
attr title "queueing time, histogram"
bin	-inf	0
bin	-0.5	0
bin	-0.46666666666667	0
bin	-0.43333333333333	0
bin	-0.4	0
bin	-0.36666666666667	0
bin	-0.33333333333333	0
bin	-0.3	0
bin	-0.26666666666667	0
bin	-0.23333333333333	0
bin	-0.2	0
bin	-0.16666666666667	0
bin	-0.13333333333333	0
bin	-0.1	0
bin	-0.066666666666667	0
bin	-0.033333333333333	0
bin	-6.9388939039072e-018	0
bin	0.033333333333333	0
bin	0.066666666666667	0
bin	0.1	0
bin	0.13333333333333	0
bin	0.16666666666667	0
bin	0.2	0
bin	0.23333333333333	0
bin	0.26666666666667	0
bin	0.3	0
bin	0.33333333333333	0
bin	0.36666666666667	0
bin	0.4	0
bin	0.43333333333333	0
bin	0.46666666666667	0
bin	0.5	0
scalar TreeLAN.host2.eth[0].queue.dataQueue dropPk:count 0
attr interpolationmode none
attr source dropPkByQueue
attr title "dropped packets, count"
scalar TreeLAN.host2.eth[0].queue.dataQueue dropPk:sum(packetBytes) 0
attr interpolationmode none
attr source dropPkByQueue
attr title "dropped packets, sum(packetBytes)"
scalar TreeLAN.host2.eth[0].queue.dataQueue rcvdPk:count 0
attr interpolationmode none
attr title "received packets, count"
scalar TreeLAN.host2.eth[0].queue.dataQueue rcvdPk:sum(packetBytes) 0
attr interpolationmode none
attr title "received packets, sum(packetBytes)"
scalar TreeLAN.host2.eth[0].mac "simulated time" 2.000097089047
scalar TreeLAN.host2.eth[0].mac full-duplex 1
scalar TreeLAN.host2.eth[0].mac "frames/sec sent" 0
scalar TreeLAN.host2.eth[0].mac "frames/sec rcvd" 0.99995145783296
scalar TreeLAN.host2.eth[0].mac "bits/sec sent" 0
scalar TreeLAN.host2.eth[0].mac "bits/sec rcvd" 511.97514641047
scalar TreeLAN.host2.eth[0].mac "rx channel idle (%)" 99.99942402796
scalar TreeLAN.host2.eth[0].mac "rx channel utilization (%)" 0.00057597203971178
scalar TreeLAN.host2.eth[0].mac rxPkFromHL:count 0
attr interpolationmode none
attr source rxPkFromHL
attr title "packet bytes from higher layer, count"
scalar TreeLAN.host2.eth[0].mac rxPkFromHL:sum(packetBytes) 0
attr interpolationmode none
attr source rxPkFromHL
attr title "packet bytes from higher layer, sum(packetBytes)"
scalar TreeLAN.host2.eth[0].mac rxPausePkUnits:count 0
attr interpolationmode none
attr title "pause units received, count"
scalar TreeLAN.host2.eth[0].mac rxPausePkUnits:sum 0
attr interpolationmode none
attr title "pause units received, sum"
scalar TreeLAN.host2.eth[0].mac txPausePkUnits:count 0
attr interpolationmode none
attr title "pause units sent, count"
scalar TreeLAN.host2.eth[0].mac txPausePkUnits:sum 0
attr interpolationmode none
attr title "pause units sent, sum"
scalar TreeLAN.host2.eth[0].mac txPk:count 0
attr interpolationmode none
attr source txPk
attr title "packets transmitted, count"
scalar TreeLAN.host2.eth[0].mac txPk:sum(packetBytes) 0
attr interpolationmode none
attr source txPk
attr title "packets transmitted, sum(packetBytes)"
scalar TreeLAN.host2.eth[0].mac droppedPkNotForUs:count 0
attr interpolationmode none
attr source dropPkNotForUs
attr title "packets dropped/not for us, count"
scalar TreeLAN.host2.eth[0].mac droppedPkNotForUs:sum(packetBytes) 0
attr interpolationmode none
attr source dropPkNotForUs
attr title "packets dropped/not for us, sum(packetBytes)"
scalar TreeLAN.host2.eth[0].mac droppedPkBitError:count 0
attr interpolationmode none
attr source dropPkBitError
attr title "packets dropped/bit error, count"
scalar TreeLAN.host2.eth[0].mac droppedPkBitError:sum(packetBytes) 0
attr interpolationmode none
attr source dropPkBitError
attr title "packets dropped/bit error, sum(packetBytes)"
scalar TreeLAN.host2.eth[0].mac droppedPkIfaceDown:count 0
attr interpolationmode none
attr source dropPkIfaceDown
attr title "packets dropped/interface down, count"
scalar TreeLAN.host2.eth[0].mac droppedPkIfaceDown:sum(packetBytes) 0
attr interpolationmode none
attr source dropPkIfaceDown
attr title "packets dropped/interface down, sum(packetBytes)"
scalar TreeLAN.host2.eth[0].mac rxPkOk:count 2
attr interpolationmode none
attr source rxPkOk
attr title "packets received OK, count"
scalar TreeLAN.host2.eth[0].mac rxPkOk:sum(packetBytes) 128
attr interpolationmode none
attr source rxPkOk
attr title "packets received OK, sum(packetBytes)"
scalar TreeLAN.host2.eth[0].mac passedUpPk:count 2
attr interpolationmode none
attr source packetSentToUpper
attr title "packets passed to higher layer, count"
scalar TreeLAN.host2.eth[0].mac passedUpPk:sum(packetBytes) 128
attr interpolationmode none
attr source packetSentToUpper
attr title "packets passed to higher layer, sum(packetBytes)"
scalar TreeLAN.host2.eth[0].encap pauseSent:count 0
attr title "pause sent, count"
scalar TreeLAN.host2.eth[0].encap pauseSent:sum 0
attr title "pause sent, sum"
scalar TreeLAN.host2.eth[0].encap decapPk:count 2
attr interpolationmode none
attr source decapPk
attr title "packets decapsulated, count"
scalar TreeLAN.host2.eth[0].encap decapPk:sum(packetBytes) 56
attr interpolationmode none
attr source decapPk
attr title "packets decapsulated, sum(packetBytes)"
scalar TreeLAN.host2.eth[0].encap encapPk:count 0
attr interpolationmode none
attr source encapPk
attr title "packets encapsulated, count"
scalar TreeLAN.host2.eth[0].encap encapPk:sum(packetBytes) 0
attr interpolationmode none
attr source encapPk
attr title "packets encapsulated, sum(packetBytes)"
scalar TreeLAN.host3.networkLayer.arp sentReply:count 0
attr title "ARP replies sent, count"
scalar TreeLAN.host3.networkLayer.arp sentReq:count 0
attr title "ARP request sent, count"
scalar TreeLAN.host3.networkLayer.arp failedARPResolution:count 0
attr title "ARP failed resolutions, count"
scalar TreeLAN.host3.networkLayer.arp completedARPResolution:count 0
attr title "ARP completed resolutions, count"
scalar TreeLAN.host3.networkLayer.arp initiatedARPResolution:count 0
attr title "ARP initiated resolutions, count"
scalar TreeLAN.host3.lo0.lo droppedPkBitError:count 0
attr interpolationmode none
attr source dropPkBitError
attr title "packets dropped/bit error, count"
scalar TreeLAN.host3.lo0.lo droppedPkBitError:sum(packetBytes) 0
attr interpolationmode none
attr source dropPkBitError
attr title "packets dropped/bit error, sum(packetBytes)"
scalar TreeLAN.host3.lo0.lo rcvdPkFromHL:count 0
attr interpolationmode none
attr source packetReceivedFromUpper
attr title "packets received from higher layer, count"
scalar TreeLAN.host3.lo0.lo rcvdPkFromHL:sum(packetBytes) 0
attr interpolationmode none
attr source packetReceivedFromUpper
attr title "packets received from higher layer, sum(packetBytes)"
scalar TreeLAN.host3.lo0.lo passedUpPk:count 0
attr interpolationmode none
attr source packetSentToUpper
attr title "packets passed to higher layer, count"
scalar TreeLAN.host3.lo0.lo passedUpPk:sum(packetBytes) 0
attr interpolationmode none
attr source packetSentToUpper
attr title "packets passed to higher layer, sum(packetBytes)"
scalar TreeLAN.host3.eth[0].queue.pauseQueue queueLength:max 0
attr interpolationmode sample-hold
attr title "queue length, max"
scalar TreeLAN.host3.eth[0].queue.pauseQueue queueLength:timeavg 0
attr interpolationmode sample-hold
attr title "queue length, timeavg"
statistic TreeLAN.host3.eth[0].queue.pauseQueue queueingTime:histogram
field count 0
field mean nan
field stddev nan
field min nan
field max nan
field sum 0
field sqrsum 0
attr interpolationmode none
attr title "queueing time, histogram"
bin	-inf	0
bin	-0.5	0
bin	-0.46666666666667	0
bin	-0.43333333333333	0
bin	-0.4	0
bin	-0.36666666666667	0
bin	-0.33333333333333	0
bin	-0.3	0
bin	-0.26666666666667	0
bin	-0.23333333333333	0
bin	-0.2	0
bin	-0.16666666666667	0
bin	-0.13333333333333	0
bin	-0.1	0
bin	-0.066666666666667	0
bin	-0.033333333333333	0
bin	-6.9388939039072e-018	0
bin	0.033333333333333	0
bin	0.066666666666667	0
bin	0.1	0
bin	0.13333333333333	0
bin	0.16666666666667	0
bin	0.2	0
bin	0.23333333333333	0
bin	0.26666666666667	0
bin	0.3	0
bin	0.33333333333333	0
bin	0.36666666666667	0
bin	0.4	0
bin	0.43333333333333	0
bin	0.46666666666667	0
bin	0.5	0
scalar TreeLAN.host3.eth[0].queue.pauseQueue dropPk:count 0
attr interpolationmode none
attr source dropPkByQueue
attr title "dropped packets, count"
scalar TreeLAN.host3.eth[0].queue.pauseQueue dropPk:sum(packetBytes) 0
attr interpolationmode none
attr source dropPkByQueue
attr title "dropped packets, sum(packetBytes)"
scalar TreeLAN.host3.eth[0].queue.pauseQueue rcvdPk:count 0
attr interpolationmode none
attr title "received packets, count"
scalar TreeLAN.host3.eth[0].queue.pauseQueue rcvdPk:sum(packetBytes) 0
attr interpolationmode none
attr title "received packets, sum(packetBytes)"
scalar TreeLAN.host3.eth[0].queue.dataQueue queueLength:max 0
attr interpolationmode sample-hold
attr title "queue length, max"
scalar TreeLAN.host3.eth[0].queue.dataQueue queueLength:timeavg 0
attr interpolationmode sample-hold
attr title "queue length, timeavg"
statistic TreeLAN.host3.eth[0].queue.dataQueue queueingTime:histogram
field count 0
field mean nan
field stddev nan
field min nan
field max nan
field sum 0
field sqrsum 0
attr interpolationmode none
attr title "queueing time, histogram"
bin	-inf	0
bin	-0.5	0
bin	-0.46666666666667	0
bin	-0.43333333333333	0
bin	-0.4	0
bin	-0.36666666666667	0
bin	-0.33333333333333	0
bin	-0.3	0
bin	-0.26666666666667	0
bin	-0.23333333333333	0
bin	-0.2	0
bin	-0.16666666666667	0
bin	-0.13333333333333	0
bin	-0.1	0
bin	-0.066666666666667	0
bin	-0.033333333333333	0
bin	-6.9388939039072e-018	0
bin	0.033333333333333	0
bin	0.066666666666667	0
bin	0.1	0
bin	0.13333333333333	0
bin	0.16666666666667	0
bin	0.2	0
bin	0.23333333333333	0
bin	0.26666666666667	0
bin	0.3	0
bin	0.33333333333333	0
bin	0.36666666666667	0
bin	0.4	0
bin	0.43333333333333	0
bin	0.46666666666667	0
bin	0.5	0
scalar TreeLAN.host3.eth[0].queue.dataQueue dropPk:count 0
attr interpolationmode none
attr source dropPkByQueue
attr title "dropped packets, count"
scalar TreeLAN.host3.eth[0].queue.dataQueue dropPk:sum(packetBytes) 0
attr interpolationmode none
attr source dropPkByQueue
attr title "dropped packets, sum(packetBytes)"
scalar TreeLAN.host3.eth[0].queue.dataQueue rcvdPk:count 0
attr interpolationmode none
attr title "received packets, count"
scalar TreeLAN.host3.eth[0].queue.dataQueue rcvdPk:sum(packetBytes) 0
attr interpolationmode none
attr title "received packets, sum(packetBytes)"
scalar TreeLAN.host3.eth[0].mac "simulated time" 2.000097089047
scalar TreeLAN.host3.eth[0].mac full-duplex 1
scalar TreeLAN.host3.eth[0].mac "frames/sec sent" 0
scalar TreeLAN.host3.eth[0].mac "frames/sec rcvd" 0.99995145783296
scalar TreeLAN.host3.eth[0].mac "bits/sec sent" 0
scalar TreeLAN.host3.eth[0].mac "bits/sec rcvd" 511.97514641047
scalar TreeLAN.host3.eth[0].mac "rx channel idle (%)" 99.99942402796
scalar TreeLAN.host3.eth[0].mac "rx channel utilization (%)" 0.00057597203971178
scalar TreeLAN.host3.eth[0].mac rxPkFromHL:count 0
attr interpolationmode none
attr source rxPkFromHL
attr title "packet bytes from higher layer, count"
scalar TreeLAN.host3.eth[0].mac rxPkFromHL:sum(packetBytes) 0
attr interpolationmode none
attr source rxPkFromHL
attr title "packet bytes from higher layer, sum(packetBytes)"
scalar TreeLAN.host3.eth[0].mac rxPausePkUnits:count 0
attr interpolationmode none
attr title "pause units received, count"
scalar TreeLAN.host3.eth[0].mac rxPausePkUnits:sum 0
attr interpolationmode none
attr title "pause units received, sum"
scalar TreeLAN.host3.eth[0].mac txPausePkUnits:count 0
attr interpolationmode none
attr title "pause units sent, count"
scalar TreeLAN.host3.eth[0].mac txPausePkUnits:sum 0
attr interpolationmode none
attr title "pause units sent, sum"
scalar TreeLAN.host3.eth[0].mac txPk:count 0
attr interpolationmode none
attr source txPk
attr title "packets transmitted, count"
scalar TreeLAN.host3.eth[0].mac txPk:sum(packetBytes) 0
attr interpolationmode none
attr source txPk
attr title "packets transmitted, sum(packetBytes)"
scalar TreeLAN.host3.eth[0].mac droppedPkNotForUs:count 0
attr interpolationmode none
attr source dropPkNotForUs
attr title "packets dropped/not for us, count"
scalar TreeLAN.host3.eth[0].mac droppedPkNotForUs:sum(packetBytes) 0
attr interpolationmode none
attr source dropPkNotForUs
attr title "packets dropped/not for us, sum(packetBytes)"
scalar TreeLAN.host3.eth[0].mac droppedPkBitError:count 0
attr interpolationmode none
attr source dropPkBitError
attr title "packets dropped/bit error, count"
scalar TreeLAN.host3.eth[0].mac droppedPkBitError:sum(packetBytes) 0
attr interpolationmode none
attr source dropPkBitError
attr title "packets dropped/bit error, sum(packetBytes)"
scalar TreeLAN.host3.eth[0].mac droppedPkIfaceDown:count 0
attr interpolationmode none
attr source dropPkIfaceDown
attr title "packets dropped/interface down, count"
scalar TreeLAN.host3.eth[0].mac droppedPkIfaceDown:sum(packetBytes) 0
attr interpolationmode none
attr source dropPkIfaceDown
attr title "packets dropped/interface down, sum(packetBytes)"
scalar TreeLAN.host3.eth[0].mac rxPkOk:count 2
attr interpolationmode none
attr source rxPkOk
attr title "packets received OK, count"
scalar TreeLAN.host3.eth[0].mac rxPkOk:sum(packetBytes) 128
attr interpolationmode none
attr source rxPkOk
attr title "packets received OK, sum(packetBytes)"
scalar TreeLAN.host3.eth[0].mac passedUpPk:count 2
attr interpolationmode none
attr source packetSentToUpper
attr title "packets passed to higher layer, count"
scalar TreeLAN.host3.eth[0].mac passedUpPk:sum(packetBytes) 128
attr interpolationmode none
attr source packetSentToUpper
attr title "packets passed to higher layer, sum(packetBytes)"
scalar TreeLAN.host3.eth[0].encap pauseSent:count 0
attr title "pause sent, count"
scalar TreeLAN.host3.eth[0].encap pauseSent:sum 0
attr title "pause sent, sum"
scalar TreeLAN.host3.eth[0].encap decapPk:count 2
attr interpolationmode none
attr source decapPk
attr title "packets decapsulated, count"
scalar TreeLAN.host3.eth[0].encap decapPk:sum(packetBytes) 56
attr interpolationmode none
attr source decapPk
attr title "packets decapsulated, sum(packetBytes)"
scalar TreeLAN.host3.eth[0].encap encapPk:count 0
attr interpolationmode none
attr source encapPk
attr title "packets encapsulated, count"
scalar TreeLAN.host3.eth[0].encap encapPk:sum(packetBytes) 0
attr interpolationmode none
attr source encapPk
attr title "packets encapsulated, sum(packetBytes)"
scalar TreeLAN.host4.networkLayer.arp sentReply:count 0
attr title "ARP replies sent, count"
scalar TreeLAN.host4.networkLayer.arp sentReq:count 0
attr title "ARP request sent, count"
scalar TreeLAN.host4.networkLayer.arp failedARPResolution:count 0
attr title "ARP failed resolutions, count"
scalar TreeLAN.host4.networkLayer.arp completedARPResolution:count 0
attr title "ARP completed resolutions, count"
scalar TreeLAN.host4.networkLayer.arp initiatedARPResolution:count 0
attr title "ARP initiated resolutions, count"
scalar TreeLAN.host4.lo0.lo droppedPkBitError:count 0
attr interpolationmode none
attr source dropPkBitError
attr title "packets dropped/bit error, count"
scalar TreeLAN.host4.lo0.lo droppedPkBitError:sum(packetBytes) 0
attr interpolationmode none
attr source dropPkBitError
attr title "packets dropped/bit error, sum(packetBytes)"
scalar TreeLAN.host4.lo0.lo rcvdPkFromHL:count 0
attr interpolationmode none
attr source packetReceivedFromUpper
attr title "packets received from higher layer, count"
scalar TreeLAN.host4.lo0.lo rcvdPkFromHL:sum(packetBytes) 0
attr interpolationmode none
attr source packetReceivedFromUpper
attr title "packets received from higher layer, sum(packetBytes)"
scalar TreeLAN.host4.lo0.lo passedUpPk:count 0
attr interpolationmode none
attr source packetSentToUpper
attr title "packets passed to higher layer, count"
scalar TreeLAN.host4.lo0.lo passedUpPk:sum(packetBytes) 0
attr interpolationmode none
attr source packetSentToUpper
attr title "packets passed to higher layer, sum(packetBytes)"
scalar TreeLAN.host4.eth[0].queue.pauseQueue queueLength:max 0
attr interpolationmode sample-hold
attr title "queue length, max"
scalar TreeLAN.host4.eth[0].queue.pauseQueue queueLength:timeavg 0
attr interpolationmode sample-hold
attr title "queue length, timeavg"
statistic TreeLAN.host4.eth[0].queue.pauseQueue queueingTime:histogram
field count 0
field mean nan
field stddev nan
field min nan
field max nan
field sum 0
field sqrsum 0
attr interpolationmode none
attr title "queueing time, histogram"
bin	-inf	0
bin	-0.5	0
bin	-0.46666666666667	0
bin	-0.43333333333333	0
bin	-0.4	0
bin	-0.36666666666667	0
bin	-0.33333333333333	0
bin	-0.3	0
bin	-0.26666666666667	0
bin	-0.23333333333333	0
bin	-0.2	0
bin	-0.16666666666667	0
bin	-0.13333333333333	0
bin	-0.1	0
bin	-0.066666666666667	0
bin	-0.033333333333333	0
bin	-6.9388939039072e-018	0
bin	0.033333333333333	0
bin	0.066666666666667	0
bin	0.1	0
bin	0.13333333333333	0
bin	0.16666666666667	0
bin	0.2	0
bin	0.23333333333333	0
bin	0.26666666666667	0
bin	0.3	0
bin	0.33333333333333	0
bin	0.36666666666667	0
bin	0.4	0
bin	0.43333333333333	0
bin	0.46666666666667	0
bin	0.5	0
scalar TreeLAN.host4.eth[0].queue.pauseQueue dropPk:count 0
attr interpolationmode none
attr source dropPkByQueue
attr title "dropped packets, count"
scalar TreeLAN.host4.eth[0].queue.pauseQueue dropPk:sum(packetBytes) 0
attr interpolationmode none
attr source dropPkByQueue
attr title "dropped packets, sum(packetBytes)"
scalar TreeLAN.host4.eth[0].queue.pauseQueue rcvdPk:count 0
attr interpolationmode none
attr title "received packets, count"
scalar TreeLAN.host4.eth[0].queue.pauseQueue rcvdPk:sum(packetBytes) 0
attr interpolationmode none
attr title "received packets, sum(packetBytes)"
scalar TreeLAN.host4.eth[0].queue.dataQueue queueLength:max 0
attr interpolationmode sample-hold
attr title "queue length, max"
scalar TreeLAN.host4.eth[0].queue.dataQueue queueLength:timeavg 0
attr interpolationmode sample-hold
attr title "queue length, timeavg"
statistic TreeLAN.host4.eth[0].queue.dataQueue queueingTime:histogram
field count 0
field mean nan
field stddev nan
field min nan
field max nan
field sum 0
field sqrsum 0
attr interpolationmode none
attr title "queueing time, histogram"
bin	-inf	0
bin	-0.5	0
bin	-0.46666666666667	0
bin	-0.43333333333333	0
bin	-0.4	0
bin	-0.36666666666667	0
bin	-0.33333333333333	0
bin	-0.3	0
bin	-0.26666666666667	0
bin	-0.23333333333333	0
bin	-0.2	0
bin	-0.16666666666667	0
bin	-0.13333333333333	0
bin	-0.1	0
bin	-0.066666666666667	0
bin	-0.033333333333333	0
bin	-6.9388939039072e-018	0
bin	0.033333333333333	0
bin	0.066666666666667	0
bin	0.1	0
bin	0.13333333333333	0
bin	0.16666666666667	0
bin	0.2	0
bin	0.23333333333333	0
bin	0.26666666666667	0
bin	0.3	0
bin	0.33333333333333	0
bin	0.36666666666667	0
bin	0.4	0
bin	0.43333333333333	0
bin	0.46666666666667	0
bin	0.5	0
scalar TreeLAN.host4.eth[0].queue.dataQueue dropPk:count 0
attr interpolationmode none
attr source dropPkByQueue
attr title "dropped packets, count"
scalar TreeLAN.host4.eth[0].queue.dataQueue dropPk:sum(packetBytes) 0
attr interpolationmode none
attr source dropPkByQueue
attr title "dropped packets, sum(packetBytes)"
scalar TreeLAN.host4.eth[0].queue.dataQueue rcvdPk:count 0
attr interpolationmode none
attr title "received packets, count"
scalar TreeLAN.host4.eth[0].queue.dataQueue rcvdPk:sum(packetBytes) 0
attr interpolationmode none
attr title "received packets, sum(packetBytes)"
scalar TreeLAN.host4.eth[0].mac "simulated time" 2.000097089047
scalar TreeLAN.host4.eth[0].mac full-duplex 1
scalar TreeLAN.host4.eth[0].mac "frames/sec sent" 0
scalar TreeLAN.host4.eth[0].mac "frames/sec rcvd" 0.99995145783296
scalar TreeLAN.host4.eth[0].mac "bits/sec sent" 0
scalar TreeLAN.host4.eth[0].mac "bits/sec rcvd" 511.97514641047
scalar TreeLAN.host4.eth[0].mac "rx channel idle (%)" 99.99942402796
scalar TreeLAN.host4.eth[0].mac "rx channel utilization (%)" 0.00057597203971178
scalar TreeLAN.host4.eth[0].mac rxPkFromHL:count 0
attr interpolationmode none
attr source rxPkFromHL
attr title "packet bytes from higher layer, count"
scalar TreeLAN.host4.eth[0].mac rxPkFromHL:sum(packetBytes) 0
attr interpolationmode none
attr source rxPkFromHL
attr title "packet bytes from higher layer, sum(packetBytes)"
scalar TreeLAN.host4.eth[0].mac rxPausePkUnits:count 0
attr interpolationmode none
attr title "pause units received, count"
scalar TreeLAN.host4.eth[0].mac rxPausePkUnits:sum 0
attr interpolationmode none
attr title "pause units received, sum"
scalar TreeLAN.host4.eth[0].mac txPausePkUnits:count 0
attr interpolationmode none
attr title "pause units sent, count"
scalar TreeLAN.host4.eth[0].mac txPausePkUnits:sum 0
attr interpolationmode none
attr title "pause units sent, sum"
scalar TreeLAN.host4.eth[0].mac txPk:count 0
attr interpolationmode none
attr source txPk
attr title "packets transmitted, count"
scalar TreeLAN.host4.eth[0].mac txPk:sum(packetBytes) 0
attr interpolationmode none
attr source txPk
attr title "packets transmitted, sum(packetBytes)"
scalar TreeLAN.host4.eth[0].mac droppedPkNotForUs:count 0
attr interpolationmode none
attr source dropPkNotForUs
attr title "packets dropped/not for us, count"
scalar TreeLAN.host4.eth[0].mac droppedPkNotForUs:sum(packetBytes) 0
attr interpolationmode none
attr source dropPkNotForUs
attr title "packets dropped/not for us, sum(packetBytes)"
scalar TreeLAN.host4.eth[0].mac droppedPkBitError:count 0
attr interpolationmode none
attr source dropPkBitError
attr title "packets dropped/bit error, count"
scalar TreeLAN.host4.eth[0].mac droppedPkBitError:sum(packetBytes) 0
attr interpolationmode none
attr source dropPkBitError
attr title "packets dropped/bit error, sum(packetBytes)"
scalar TreeLAN.host4.eth[0].mac droppedPkIfaceDown:count 0
attr interpolationmode none
attr source dropPkIfaceDown
attr title "packets dropped/interface down, count"
scalar TreeLAN.host4.eth[0].mac droppedPkIfaceDown:sum(packetBytes) 0
attr interpolationmode none
attr source dropPkIfaceDown
attr title "packets dropped/interface down, sum(packetBytes)"
scalar TreeLAN.host4.eth[0].mac rxPkOk:count 2
attr interpolationmode none
attr source rxPkOk
attr title "packets received OK, count"
scalar TreeLAN.host4.eth[0].mac rxPkOk:sum(packetBytes) 128
attr interpolationmode none
attr source rxPkOk
attr title "packets received OK, sum(packetBytes)"
scalar TreeLAN.host4.eth[0].mac passedUpPk:count 2
attr interpolationmode none
attr source packetSentToUpper
attr title "packets passed to higher layer, count"
scalar TreeLAN.host4.eth[0].mac passedUpPk:sum(packetBytes) 128
attr interpolationmode none
attr source packetSentToUpper
attr title "packets passed to higher layer, sum(packetBytes)"
scalar TreeLAN.host4.eth[0].encap pauseSent:count 0
attr title "pause sent, count"
scalar TreeLAN.host4.eth[0].encap pauseSent:sum 0
attr title "pause sent, sum"
scalar TreeLAN.host4.eth[0].encap decapPk:count 2
attr interpolationmode none
attr source decapPk
attr title "packets decapsulated, count"
scalar TreeLAN.host4.eth[0].encap decapPk:sum(packetBytes) 56
attr interpolationmode none
attr source decapPk
attr title "packets decapsulated, sum(packetBytes)"
scalar TreeLAN.host4.eth[0].encap encapPk:count 0
attr interpolationmode none
attr source encapPk
attr title "packets encapsulated, count"
scalar TreeLAN.host4.eth[0].encap encapPk:sum(packetBytes) 0
attr interpolationmode none
attr source encapPk
attr title "packets encapsulated, sum(packetBytes)"
scalar TreeLAN.host5.networkLayer.arp sentReply:count 0
attr title "ARP replies sent, count"
scalar TreeLAN.host5.networkLayer.arp sentReq:count 0
attr title "ARP request sent, count"
scalar TreeLAN.host5.networkLayer.arp failedARPResolution:count 0
attr title "ARP failed resolutions, count"
scalar TreeLAN.host5.networkLayer.arp completedARPResolution:count 0
attr title "ARP completed resolutions, count"
scalar TreeLAN.host5.networkLayer.arp initiatedARPResolution:count 0
attr title "ARP initiated resolutions, count"
scalar TreeLAN.host5.lo0.lo droppedPkBitError:count 0
attr interpolationmode none
attr source dropPkBitError
attr title "packets dropped/bit error, count"
scalar TreeLAN.host5.lo0.lo droppedPkBitError:sum(packetBytes) 0
attr interpolationmode none
attr source dropPkBitError
attr title "packets dropped/bit error, sum(packetBytes)"
scalar TreeLAN.host5.lo0.lo rcvdPkFromHL:count 0
attr interpolationmode none
attr source packetReceivedFromUpper
attr title "packets received from higher layer, count"
scalar TreeLAN.host5.lo0.lo rcvdPkFromHL:sum(packetBytes) 0
attr interpolationmode none
attr source packetReceivedFromUpper
attr title "packets received from higher layer, sum(packetBytes)"
scalar TreeLAN.host5.lo0.lo passedUpPk:count 0
attr interpolationmode none
attr source packetSentToUpper
attr title "packets passed to higher layer, count"
scalar TreeLAN.host5.lo0.lo passedUpPk:sum(packetBytes) 0
attr interpolationmode none
attr source packetSentToUpper
attr title "packets passed to higher layer, sum(packetBytes)"
scalar TreeLAN.host5.eth[0].queue.pauseQueue queueLength:max 0
attr interpolationmode sample-hold
attr title "queue length, max"
scalar TreeLAN.host5.eth[0].queue.pauseQueue queueLength:timeavg 0
attr interpolationmode sample-hold
attr title "queue length, timeavg"
statistic TreeLAN.host5.eth[0].queue.pauseQueue queueingTime:histogram
field count 0
field mean nan
field stddev nan
field min nan
field max nan
field sum 0
field sqrsum 0
attr interpolationmode none
attr title "queueing time, histogram"
bin	-inf	0
bin	-0.5	0
bin	-0.46666666666667	0
bin	-0.43333333333333	0
bin	-0.4	0
bin	-0.36666666666667	0
bin	-0.33333333333333	0
bin	-0.3	0
bin	-0.26666666666667	0
bin	-0.23333333333333	0
bin	-0.2	0
bin	-0.16666666666667	0
bin	-0.13333333333333	0
bin	-0.1	0
bin	-0.066666666666667	0
bin	-0.033333333333333	0
bin	-6.9388939039072e-018	0
bin	0.033333333333333	0
bin	0.066666666666667	0
bin	0.1	0
bin	0.13333333333333	0
bin	0.16666666666667	0
bin	0.2	0
bin	0.23333333333333	0
bin	0.26666666666667	0
bin	0.3	0
bin	0.33333333333333	0
bin	0.36666666666667	0
bin	0.4	0
bin	0.43333333333333	0
bin	0.46666666666667	0
bin	0.5	0
scalar TreeLAN.host5.eth[0].queue.pauseQueue dropPk:count 0
attr interpolationmode none
attr source dropPkByQueue
attr title "dropped packets, count"
scalar TreeLAN.host5.eth[0].queue.pauseQueue dropPk:sum(packetBytes) 0
attr interpolationmode none
attr source dropPkByQueue
attr title "dropped packets, sum(packetBytes)"
scalar TreeLAN.host5.eth[0].queue.pauseQueue rcvdPk:count 0
attr interpolationmode none
attr title "received packets, count"
scalar TreeLAN.host5.eth[0].queue.pauseQueue rcvdPk:sum(packetBytes) 0
attr interpolationmode none
attr title "received packets, sum(packetBytes)"
scalar TreeLAN.host5.eth[0].queue.dataQueue queueLength:max 0
attr interpolationmode sample-hold
attr title "queue length, max"
scalar TreeLAN.host5.eth[0].queue.dataQueue queueLength:timeavg 0
attr interpolationmode sample-hold
attr title "queue length, timeavg"
statistic TreeLAN.host5.eth[0].queue.dataQueue queueingTime:histogram
field count 0
field mean nan
field stddev nan
field min nan
field max nan
field sum 0
field sqrsum 0
attr interpolationmode none
attr title "queueing time, histogram"
bin	-inf	0
bin	-0.5	0
bin	-0.46666666666667	0
bin	-0.43333333333333	0
bin	-0.4	0
bin	-0.36666666666667	0
bin	-0.33333333333333	0
bin	-0.3	0
bin	-0.26666666666667	0
bin	-0.23333333333333	0
bin	-0.2	0
bin	-0.16666666666667	0
bin	-0.13333333333333	0
bin	-0.1	0
bin	-0.066666666666667	0
bin	-0.033333333333333	0
bin	-6.9388939039072e-018	0
bin	0.033333333333333	0
bin	0.066666666666667	0
bin	0.1	0
bin	0.13333333333333	0
bin	0.16666666666667	0
bin	0.2	0
bin	0.23333333333333	0
bin	0.26666666666667	0
bin	0.3	0
bin	0.33333333333333	0
bin	0.36666666666667	0
bin	0.4	0
bin	0.43333333333333	0
bin	0.46666666666667	0
bin	0.5	0
scalar TreeLAN.host5.eth[0].queue.dataQueue dropPk:count 0
attr interpolationmode none
attr source dropPkByQueue
attr title "dropped packets, count"
scalar TreeLAN.host5.eth[0].queue.dataQueue dropPk:sum(packetBytes) 0
attr interpolationmode none
attr source dropPkByQueue
attr title "dropped packets, sum(packetBytes)"
scalar TreeLAN.host5.eth[0].queue.dataQueue rcvdPk:count 0
attr interpolationmode none
attr title "received packets, count"
scalar TreeLAN.host5.eth[0].queue.dataQueue rcvdPk:sum(packetBytes) 0
attr interpolationmode none
attr title "received packets, sum(packetBytes)"
scalar TreeLAN.host5.eth[0].mac "simulated time" 2.000097089047
scalar TreeLAN.host5.eth[0].mac full-duplex 1
scalar TreeLAN.host5.eth[0].mac "frames/sec sent" 0
scalar TreeLAN.host5.eth[0].mac "frames/sec rcvd" 0.99995145783296
scalar TreeLAN.host5.eth[0].mac "bits/sec sent" 0
scalar TreeLAN.host5.eth[0].mac "bits/sec rcvd" 511.97514641047
scalar TreeLAN.host5.eth[0].mac "rx channel idle (%)" 99.99942402796
scalar TreeLAN.host5.eth[0].mac "rx channel utilization (%)" 0.00057597203971178
scalar TreeLAN.host5.eth[0].mac rxPkFromHL:count 0
attr interpolationmode none
attr source rxPkFromHL
attr title "packet bytes from higher layer, count"
scalar TreeLAN.host5.eth[0].mac rxPkFromHL:sum(packetBytes) 0
attr interpolationmode none
attr source rxPkFromHL
attr title "packet bytes from higher layer, sum(packetBytes)"
scalar TreeLAN.host5.eth[0].mac rxPausePkUnits:count 0
attr interpolationmode none
attr title "pause units received, count"
scalar TreeLAN.host5.eth[0].mac rxPausePkUnits:sum 0
attr interpolationmode none
attr title "pause units received, sum"
scalar TreeLAN.host5.eth[0].mac txPausePkUnits:count 0
attr interpolationmode none
attr title "pause units sent, count"
scalar TreeLAN.host5.eth[0].mac txPausePkUnits:sum 0
attr interpolationmode none
attr title "pause units sent, sum"
scalar TreeLAN.host5.eth[0].mac txPk:count 0
attr interpolationmode none
attr source txPk
attr title "packets transmitted, count"
scalar TreeLAN.host5.eth[0].mac txPk:sum(packetBytes) 0
attr interpolationmode none
attr source txPk
attr title "packets transmitted, sum(packetBytes)"
scalar TreeLAN.host5.eth[0].mac droppedPkNotForUs:count 0
attr interpolationmode none
attr source dropPkNotForUs
attr title "packets dropped/not for us, count"
scalar TreeLAN.host5.eth[0].mac droppedPkNotForUs:sum(packetBytes) 0
attr interpolationmode none
attr source dropPkNotForUs
attr title "packets dropped/not for us, sum(packetBytes)"
scalar TreeLAN.host5.eth[0].mac droppedPkBitError:count 0
attr interpolationmode none
attr source dropPkBitError
attr title "packets dropped/bit error, count"
scalar TreeLAN.host5.eth[0].mac droppedPkBitError:sum(packetBytes) 0
attr interpolationmode none
attr source dropPkBitError
attr title "packets dropped/bit error, sum(packetBytes)"
scalar TreeLAN.host5.eth[0].mac droppedPkIfaceDown:count 0
attr interpolationmode none
attr source dropPkIfaceDown
attr title "packets dropped/interface down, count"
scalar TreeLAN.host5.eth[0].mac droppedPkIfaceDown:sum(packetBytes) 0
attr interpolationmode none
attr source dropPkIfaceDown
attr title "packets dropped/interface down, sum(packetBytes)"
scalar TreeLAN.host5.eth[0].mac rxPkOk:count 2
attr interpolationmode none
attr source rxPkOk
attr title "packets received OK, count"
scalar TreeLAN.host5.eth[0].mac rxPkOk:sum(packetBytes) 128
attr interpolationmode none
attr source rxPkOk
attr title "packets received OK, sum(packetBytes)"
scalar TreeLAN.host5.eth[0].mac passedUpPk:count 2
attr interpolationmode none
attr source packetSentToUpper
attr title "packets passed to higher layer, count"
scalar TreeLAN.host5.eth[0].mac passedUpPk:sum(packetBytes) 128
attr interpolationmode none
attr source packetSentToUpper
attr title "packets passed to higher layer, sum(packetBytes)"
scalar TreeLAN.host5.eth[0].encap pauseSent:count 0
attr title "pause sent, count"
scalar TreeLAN.host5.eth[0].encap pauseSent:sum 0
attr title "pause sent, sum"
scalar TreeLAN.host5.eth[0].encap decapPk:count 2
attr interpolationmode none
attr source decapPk
attr title "packets decapsulated, count"
scalar TreeLAN.host5.eth[0].encap decapPk:sum(packetBytes) 56
attr interpolationmode none
attr source decapPk
attr title "packets decapsulated, sum(packetBytes)"
scalar TreeLAN.host5.eth[0].encap encapPk:count 0
attr interpolationmode none
attr source encapPk
attr title "packets encapsulated, count"
scalar TreeLAN.host5.eth[0].encap encapPk:sum(packetBytes) 0
attr interpolationmode none
attr source encapPk
attr title "packets encapsulated, sum(packetBytes)"
scalar TreeLAN.host6.networkLayer.arp sentReply:count 0
attr title "ARP replies sent, count"
scalar TreeLAN.host6.networkLayer.arp sentReq:count 0
attr title "ARP request sent, count"
scalar TreeLAN.host6.networkLayer.arp failedARPResolution:count 0
attr title "ARP failed resolutions, count"
scalar TreeLAN.host6.networkLayer.arp completedARPResolution:count 0
attr title "ARP completed resolutions, count"
scalar TreeLAN.host6.networkLayer.arp initiatedARPResolution:count 0
attr title "ARP initiated resolutions, count"
scalar TreeLAN.host6.lo0.lo droppedPkBitError:count 0
attr interpolationmode none
attr source dropPkBitError
attr title "packets dropped/bit error, count"
scalar TreeLAN.host6.lo0.lo droppedPkBitError:sum(packetBytes) 0
attr interpolationmode none
attr source dropPkBitError
attr title "packets dropped/bit error, sum(packetBytes)"
scalar TreeLAN.host6.lo0.lo rcvdPkFromHL:count 0
attr interpolationmode none
attr source packetReceivedFromUpper
attr title "packets received from higher layer, count"
scalar TreeLAN.host6.lo0.lo rcvdPkFromHL:sum(packetBytes) 0
attr interpolationmode none
attr source packetReceivedFromUpper
attr title "packets received from higher layer, sum(packetBytes)"
scalar TreeLAN.host6.lo0.lo passedUpPk:count 0
attr interpolationmode none
attr source packetSentToUpper
attr title "packets passed to higher layer, count"
scalar TreeLAN.host6.lo0.lo passedUpPk:sum(packetBytes) 0
attr interpolationmode none
attr source packetSentToUpper
attr title "packets passed to higher layer, sum(packetBytes)"
scalar TreeLAN.host6.eth[0].queue.pauseQueue queueLength:max 0
attr interpolationmode sample-hold
attr title "queue length, max"
scalar TreeLAN.host6.eth[0].queue.pauseQueue queueLength:timeavg 0
attr interpolationmode sample-hold
attr title "queue length, timeavg"
statistic TreeLAN.host6.eth[0].queue.pauseQueue queueingTime:histogram
field count 0
field mean nan
field stddev nan
field min nan
field max nan
field sum 0
field sqrsum 0
attr interpolationmode none
attr title "queueing time, histogram"
bin	-inf	0
bin	-0.5	0
bin	-0.46666666666667	0
bin	-0.43333333333333	0
bin	-0.4	0
bin	-0.36666666666667	0
bin	-0.33333333333333	0
bin	-0.3	0
bin	-0.26666666666667	0
bin	-0.23333333333333	0
bin	-0.2	0
bin	-0.16666666666667	0
bin	-0.13333333333333	0
bin	-0.1	0
bin	-0.066666666666667	0
bin	-0.033333333333333	0
bin	-6.9388939039072e-018	0
bin	0.033333333333333	0
bin	0.066666666666667	0
bin	0.1	0
bin	0.13333333333333	0
bin	0.16666666666667	0
bin	0.2	0
bin	0.23333333333333	0
bin	0.26666666666667	0
bin	0.3	0
bin	0.33333333333333	0
bin	0.36666666666667	0
bin	0.4	0
bin	0.43333333333333	0
bin	0.46666666666667	0
bin	0.5	0
scalar TreeLAN.host6.eth[0].queue.pauseQueue dropPk:count 0
attr interpolationmode none
attr source dropPkByQueue
attr title "dropped packets, count"
scalar TreeLAN.host6.eth[0].queue.pauseQueue dropPk:sum(packetBytes) 0
attr interpolationmode none
attr source dropPkByQueue
attr title "dropped packets, sum(packetBytes)"
scalar TreeLAN.host6.eth[0].queue.pauseQueue rcvdPk:count 0
attr interpolationmode none
attr title "received packets, count"
scalar TreeLAN.host6.eth[0].queue.pauseQueue rcvdPk:sum(packetBytes) 0
attr interpolationmode none
attr title "received packets, sum(packetBytes)"
scalar TreeLAN.host6.eth[0].queue.dataQueue queueLength:max 0
attr interpolationmode sample-hold
attr title "queue length, max"
scalar TreeLAN.host6.eth[0].queue.dataQueue queueLength:timeavg 0
attr interpolationmode sample-hold
attr title "queue length, timeavg"
statistic TreeLAN.host6.eth[0].queue.dataQueue queueingTime:histogram
field count 0
field mean nan
field stddev nan
field min nan
field max nan
field sum 0
field sqrsum 0
attr interpolationmode none
attr title "queueing time, histogram"
bin	-inf	0
bin	-0.5	0
bin	-0.46666666666667	0
bin	-0.43333333333333	0
bin	-0.4	0
bin	-0.36666666666667	0
bin	-0.33333333333333	0
bin	-0.3	0
bin	-0.26666666666667	0
bin	-0.23333333333333	0
bin	-0.2	0
bin	-0.16666666666667	0
bin	-0.13333333333333	0
bin	-0.1	0
bin	-0.066666666666667	0
bin	-0.033333333333333	0
bin	-6.9388939039072e-018	0
bin	0.033333333333333	0
bin	0.066666666666667	0
bin	0.1	0
bin	0.13333333333333	0
bin	0.16666666666667	0
bin	0.2	0
bin	0.23333333333333	0
bin	0.26666666666667	0
bin	0.3	0
bin	0.33333333333333	0
bin	0.36666666666667	0
bin	0.4	0
bin	0.43333333333333	0
bin	0.46666666666667	0
bin	0.5	0
scalar TreeLAN.host6.eth[0].queue.dataQueue dropPk:count 0
attr interpolationmode none
attr source dropPkByQueue
attr title "dropped packets, count"
scalar TreeLAN.host6.eth[0].queue.dataQueue dropPk:sum(packetBytes) 0
attr interpolationmode none
attr source dropPkByQueue
attr title "dropped packets, sum(packetBytes)"
scalar TreeLAN.host6.eth[0].queue.dataQueue rcvdPk:count 0
attr interpolationmode none
attr title "received packets, count"
scalar TreeLAN.host6.eth[0].queue.dataQueue rcvdPk:sum(packetBytes) 0
attr interpolationmode none
attr title "received packets, sum(packetBytes)"
scalar TreeLAN.host6.eth[0].mac "simulated time" 2.000097089047
scalar TreeLAN.host6.eth[0].mac full-duplex 1
scalar TreeLAN.host6.eth[0].mac "frames/sec sent" 0
scalar TreeLAN.host6.eth[0].mac "frames/sec rcvd" 0.99995145783296
scalar TreeLAN.host6.eth[0].mac "bits/sec sent" 0
scalar TreeLAN.host6.eth[0].mac "bits/sec rcvd" 511.97514641047
scalar TreeLAN.host6.eth[0].mac "rx channel idle (%)" 99.99942402796
scalar TreeLAN.host6.eth[0].mac "rx channel utilization (%)" 0.00057597203971178
scalar TreeLAN.host6.eth[0].mac rxPkFromHL:count 0
attr interpolationmode none
attr source rxPkFromHL
attr title "packet bytes from higher layer, count"
scalar TreeLAN.host6.eth[0].mac rxPkFromHL:sum(packetBytes) 0
attr interpolationmode none
attr source rxPkFromHL
attr title "packet bytes from higher layer, sum(packetBytes)"
scalar TreeLAN.host6.eth[0].mac rxPausePkUnits:count 0
attr interpolationmode none
attr title "pause units received, count"
scalar TreeLAN.host6.eth[0].mac rxPausePkUnits:sum 0
attr interpolationmode none
attr title "pause units received, sum"
scalar TreeLAN.host6.eth[0].mac txPausePkUnits:count 0
attr interpolationmode none
attr title "pause units sent, count"
scalar TreeLAN.host6.eth[0].mac txPausePkUnits:sum 0
attr interpolationmode none
attr title "pause units sent, sum"
scalar TreeLAN.host6.eth[0].mac txPk:count 0
attr interpolationmode none
attr source txPk
attr title "packets transmitted, count"
scalar TreeLAN.host6.eth[0].mac txPk:sum(packetBytes) 0
attr interpolationmode none
attr source txPk
attr title "packets transmitted, sum(packetBytes)"
scalar TreeLAN.host6.eth[0].mac droppedPkNotForUs:count 0
attr interpolationmode none
attr source dropPkNotForUs
attr title "packets dropped/not for us, count"
scalar TreeLAN.host6.eth[0].mac droppedPkNotForUs:sum(packetBytes) 0
attr interpolationmode none
attr source dropPkNotForUs
attr title "packets dropped/not for us, sum(packetBytes)"
scalar TreeLAN.host6.eth[0].mac droppedPkBitError:count 0
attr interpolationmode none
attr source dropPkBitError
attr title "packets dropped/bit error, count"
scalar TreeLAN.host6.eth[0].mac droppedPkBitError:sum(packetBytes) 0
attr interpolationmode none
attr source dropPkBitError
attr title "packets dropped/bit error, sum(packetBytes)"
scalar TreeLAN.host6.eth[0].mac droppedPkIfaceDown:count 0
attr interpolationmode none
attr source dropPkIfaceDown
attr title "packets dropped/interface down, count"
scalar TreeLAN.host6.eth[0].mac droppedPkIfaceDown:sum(packetBytes) 0
attr interpolationmode none
attr source dropPkIfaceDown
attr title "packets dropped/interface down, sum(packetBytes)"
scalar TreeLAN.host6.eth[0].mac rxPkOk:count 2
attr interpolationmode none
attr source rxPkOk
attr title "packets received OK, count"
scalar TreeLAN.host6.eth[0].mac rxPkOk:sum(packetBytes) 128
attr interpolationmode none
attr source rxPkOk
attr title "packets received OK, sum(packetBytes)"
scalar TreeLAN.host6.eth[0].mac passedUpPk:count 2
attr interpolationmode none
attr source packetSentToUpper
attr title "packets passed to higher layer, count"
scalar TreeLAN.host6.eth[0].mac passedUpPk:sum(packetBytes) 128
attr interpolationmode none
attr source packetSentToUpper
attr title "packets passed to higher layer, sum(packetBytes)"
scalar TreeLAN.host6.eth[0].encap pauseSent:count 0
attr title "pause sent, count"
scalar TreeLAN.host6.eth[0].encap pauseSent:sum 0
attr title "pause sent, sum"
scalar TreeLAN.host6.eth[0].encap decapPk:count 2
attr interpolationmode none
attr source decapPk
attr title "packets decapsulated, count"
scalar TreeLAN.host6.eth[0].encap decapPk:sum(packetBytes) 56
attr interpolationmode none
attr source decapPk
attr title "packets decapsulated, sum(packetBytes)"
scalar TreeLAN.host6.eth[0].encap encapPk:count 0
attr interpolationmode none
attr source encapPk
attr title "packets encapsulated, count"
scalar TreeLAN.host6.eth[0].encap encapPk:sum(packetBytes) 0
attr interpolationmode none
attr source encapPk
attr title "packets encapsulated, sum(packetBytes)"
scalar TreeLAN.server2.networkLayer.arp sentReply:count 1
attr title "ARP replies sent, count"
scalar TreeLAN.server2.networkLayer.arp sentReq:count 0
attr title "ARP request sent, count"
scalar TreeLAN.server2.networkLayer.arp failedARPResolution:count 0
attr title "ARP failed resolutions, count"
scalar TreeLAN.server2.networkLayer.arp completedARPResolution:count 1
attr title "ARP completed resolutions, count"
scalar TreeLAN.server2.networkLayer.arp initiatedARPResolution:count 0
attr title "ARP initiated resolutions, count"
scalar TreeLAN.server2.lo0.lo droppedPkBitError:count 0
attr interpolationmode none
attr source dropPkBitError
attr title "packets dropped/bit error, count"
scalar TreeLAN.server2.lo0.lo droppedPkBitError:sum(packetBytes) 0
attr interpolationmode none
attr source dropPkBitError
attr title "packets dropped/bit error, sum(packetBytes)"
scalar TreeLAN.server2.lo0.lo rcvdPkFromHL:count 0
attr interpolationmode none
attr source packetReceivedFromUpper
attr title "packets received from higher layer, count"
scalar TreeLAN.server2.lo0.lo rcvdPkFromHL:sum(packetBytes) 0
attr interpolationmode none
attr source packetReceivedFromUpper
attr title "packets received from higher layer, sum(packetBytes)"
scalar TreeLAN.server2.lo0.lo passedUpPk:count 0
attr interpolationmode none
attr source packetSentToUpper
attr title "packets passed to higher layer, count"
scalar TreeLAN.server2.lo0.lo passedUpPk:sum(packetBytes) 0
attr interpolationmode none
attr source packetSentToUpper
attr title "packets passed to higher layer, sum(packetBytes)"
scalar TreeLAN.server2.eth[0].queue.pauseQueue queueLength:max 0
attr interpolationmode sample-hold
attr title "queue length, max"
scalar TreeLAN.server2.eth[0].queue.pauseQueue queueLength:timeavg 0
attr interpolationmode sample-hold
attr title "queue length, timeavg"
statistic TreeLAN.server2.eth[0].queue.pauseQueue queueingTime:histogram
field count 0
field mean nan
field stddev nan
field min nan
field max nan
field sum 0
field sqrsum 0
attr interpolationmode none
attr title "queueing time, histogram"
bin	-inf	0
bin	-0.5	0
bin	-0.46666666666667	0
bin	-0.43333333333333	0
bin	-0.4	0
bin	-0.36666666666667	0
bin	-0.33333333333333	0
bin	-0.3	0
bin	-0.26666666666667	0
bin	-0.23333333333333	0
bin	-0.2	0
bin	-0.16666666666667	0
bin	-0.13333333333333	0
bin	-0.1	0
bin	-0.066666666666667	0
bin	-0.033333333333333	0
bin	-6.9388939039072e-018	0
bin	0.033333333333333	0
bin	0.066666666666667	0
bin	0.1	0
bin	0.13333333333333	0
bin	0.16666666666667	0
bin	0.2	0
bin	0.23333333333333	0
bin	0.26666666666667	0
bin	0.3	0
bin	0.33333333333333	0
bin	0.36666666666667	0
bin	0.4	0
bin	0.43333333333333	0
bin	0.46666666666667	0
bin	0.5	0
scalar TreeLAN.server2.eth[0].queue.pauseQueue dropPk:count 0
attr interpolationmode none
attr source dropPkByQueue
attr title "dropped packets, count"
scalar TreeLAN.server2.eth[0].queue.pauseQueue dropPk:sum(packetBytes) 0
attr interpolationmode none
attr source dropPkByQueue
attr title "dropped packets, sum(packetBytes)"
scalar TreeLAN.server2.eth[0].queue.pauseQueue rcvdPk:count 0
attr interpolationmode none
attr title "received packets, count"
scalar TreeLAN.server2.eth[0].queue.pauseQueue rcvdPk:sum(packetBytes) 0
attr interpolationmode none
attr title "received packets, sum(packetBytes)"
scalar TreeLAN.server2.eth[0].queue.dataQueue queueLength:max 1
attr interpolationmode sample-hold
attr title "queue length, max"
scalar TreeLAN.server2.eth[0].queue.dataQueue queueLength:timeavg 0
attr interpolationmode sample-hold
attr title "queue length, timeavg"
statistic TreeLAN.server2.eth[0].queue.dataQueue queueingTime:histogram
field count 1
field mean 0
field stddev nan
field min 0
field max 0
field sum 0
field sqrsum 0
attr interpolationmode none
attr title "queueing time, histogram"
bin	-inf	0
bin	-0.5	0
bin	-0.46666666666667	0
bin	-0.43333333333333	0
bin	-0.4	0
bin	-0.36666666666667	0
bin	-0.33333333333333	0
bin	-0.3	0
bin	-0.26666666666667	0
bin	-0.23333333333333	0
bin	-0.2	0
bin	-0.16666666666667	0
bin	-0.13333333333333	0
bin	-0.1	0
bin	-0.066666666666667	0
bin	-0.033333333333333	0
bin	-6.9388939039072e-018	1
bin	0.033333333333333	0
bin	0.066666666666667	0
bin	0.1	0
bin	0.13333333333333	0
bin	0.16666666666667	0
bin	0.2	0
bin	0.23333333333333	0
bin	0.26666666666667	0
bin	0.3	0
bin	0.33333333333333	0
bin	0.36666666666667	0
bin	0.4	0
bin	0.43333333333333	0
bin	0.46666666666667	0
bin	0.5	0
scalar TreeLAN.server2.eth[0].queue.dataQueue dropPk:count 0
attr interpolationmode none
attr source dropPkByQueue
attr title "dropped packets, count"
scalar TreeLAN.server2.eth[0].queue.dataQueue dropPk:sum(packetBytes) 0
attr interpolationmode none
attr source dropPkByQueue
attr title "dropped packets, sum(packetBytes)"
scalar TreeLAN.server2.eth[0].queue.dataQueue rcvdPk:count 1
attr interpolationmode none
attr title "received packets, count"
scalar TreeLAN.server2.eth[0].queue.dataQueue rcvdPk:sum(packetBytes) 64
attr interpolationmode none
attr title "received packets, sum(packetBytes)"
scalar TreeLAN.server2.eth[0].mac "simulated time" 2.000097089047
scalar TreeLAN.server2.eth[0].mac full-duplex 1
scalar TreeLAN.server2.eth[0].mac "frames/sec sent" 0.49997572891648
scalar TreeLAN.server2.eth[0].mac "frames/sec rcvd" 0.99995145783296
scalar TreeLAN.server2.eth[0].mac "bits/sec sent" 255.98757320524
scalar TreeLAN.server2.eth[0].mac "bits/sec rcvd" 511.97514641047
scalar TreeLAN.server2.eth[0].mac "rx channel idle (%)" 99.99942402796
scalar TreeLAN.server2.eth[0].mac "rx channel utilization (%)" 0.00057597203971178
scalar TreeLAN.server2.eth[0].mac rxPkFromHL:count 1
attr interpolationmode none
attr source rxPkFromHL
attr title "packet bytes from higher layer, count"
scalar TreeLAN.server2.eth[0].mac rxPkFromHL:sum(packetBytes) 64
attr interpolationmode none
attr source rxPkFromHL
attr title "packet bytes from higher layer, sum(packetBytes)"
scalar TreeLAN.server2.eth[0].mac rxPausePkUnits:count 0
attr interpolationmode none
attr title "pause units received, count"
scalar TreeLAN.server2.eth[0].mac rxPausePkUnits:sum 0
attr interpolationmode none
attr title "pause units received, sum"
scalar TreeLAN.server2.eth[0].mac txPausePkUnits:count 0
attr interpolationmode none
attr title "pause units sent, count"
scalar TreeLAN.server2.eth[0].mac txPausePkUnits:sum 0
attr interpolationmode none
attr title "pause units sent, sum"
scalar TreeLAN.server2.eth[0].mac txPk:count 1
attr interpolationmode none
attr source txPk
attr title "packets transmitted, count"
scalar TreeLAN.server2.eth[0].mac txPk:sum(packetBytes) 64
attr interpolationmode none
attr source txPk
attr title "packets transmitted, sum(packetBytes)"
scalar TreeLAN.server2.eth[0].mac droppedPkNotForUs:count 0
attr interpolationmode none
attr source dropPkNotForUs
attr title "packets dropped/not for us, count"
scalar TreeLAN.server2.eth[0].mac droppedPkNotForUs:sum(packetBytes) 0
attr interpolationmode none
attr source dropPkNotForUs
attr title "packets dropped/not for us, sum(packetBytes)"
scalar TreeLAN.server2.eth[0].mac droppedPkBitError:count 0
attr interpolationmode none
attr source dropPkBitError
attr title "packets dropped/bit error, count"
scalar TreeLAN.server2.eth[0].mac droppedPkBitError:sum(packetBytes) 0
attr interpolationmode none
attr source dropPkBitError
attr title "packets dropped/bit error, sum(packetBytes)"
scalar TreeLAN.server2.eth[0].mac droppedPkIfaceDown:count 0
attr interpolationmode none
attr source dropPkIfaceDown
attr title "packets dropped/interface down, count"
scalar TreeLAN.server2.eth[0].mac droppedPkIfaceDown:sum(packetBytes) 0
attr interpolationmode none
attr source dropPkIfaceDown
attr title "packets dropped/interface down, sum(packetBytes)"
scalar TreeLAN.server2.eth[0].mac rxPkOk:count 2
attr interpolationmode none
attr source rxPkOk
attr title "packets received OK, count"
scalar TreeLAN.server2.eth[0].mac rxPkOk:sum(packetBytes) 128
attr interpolationmode none
attr source rxPkOk
attr title "packets received OK, sum(packetBytes)"
scalar TreeLAN.server2.eth[0].mac passedUpPk:count 2
attr interpolationmode none
attr source packetSentToUpper
attr title "packets passed to higher layer, count"
scalar TreeLAN.server2.eth[0].mac passedUpPk:sum(packetBytes) 128
attr interpolationmode none
attr source packetSentToUpper
attr title "packets passed to higher layer, sum(packetBytes)"
scalar TreeLAN.server2.eth[0].encap pauseSent:count 0
attr title "pause sent, count"
scalar TreeLAN.server2.eth[0].encap pauseSent:sum 0
attr title "pause sent, sum"
scalar TreeLAN.server2.eth[0].encap decapPk:count 2
attr interpolationmode none
attr source decapPk
attr title "packets decapsulated, count"
scalar TreeLAN.server2.eth[0].encap decapPk:sum(packetBytes) 56
attr interpolationmode none
attr source decapPk
attr title "packets decapsulated, sum(packetBytes)"
scalar TreeLAN.server2.eth[0].encap encapPk:count 1
attr interpolationmode none
attr source encapPk
attr title "packets encapsulated, count"
scalar TreeLAN.server2.eth[0].encap encapPk:sum(packetBytes) 28
attr interpolationmode none
attr source encapPk
attr title "packets encapsulated, sum(packetBytes)"
scalar TreeLAN.server1.networkLayer.arp sentReply:count 1
attr title "ARP replies sent, count"
scalar TreeLAN.server1.networkLayer.arp sentReq:count 0
attr title "ARP request sent, count"
scalar TreeLAN.server1.networkLayer.arp failedARPResolution:count 0
attr title "ARP failed resolutions, count"
scalar TreeLAN.server1.networkLayer.arp completedARPResolution:count 2
attr title "ARP completed resolutions, count"
scalar TreeLAN.server1.networkLayer.arp initiatedARPResolution:count 0
attr title "ARP initiated resolutions, count"
scalar TreeLAN.server1.lo0.lo droppedPkBitError:count 0
attr interpolationmode none
attr source dropPkBitError
attr title "packets dropped/bit error, count"
scalar TreeLAN.server1.lo0.lo droppedPkBitError:sum(packetBytes) 0
attr interpolationmode none
attr source dropPkBitError
attr title "packets dropped/bit error, sum(packetBytes)"
scalar TreeLAN.server1.lo0.lo rcvdPkFromHL:count 0
attr interpolationmode none
attr source packetReceivedFromUpper
attr title "packets received from higher layer, count"
scalar TreeLAN.server1.lo0.lo rcvdPkFromHL:sum(packetBytes) 0
attr interpolationmode none
attr source packetReceivedFromUpper
attr title "packets received from higher layer, sum(packetBytes)"
scalar TreeLAN.server1.lo0.lo passedUpPk:count 0
attr interpolationmode none
attr source packetSentToUpper
attr title "packets passed to higher layer, count"
scalar TreeLAN.server1.lo0.lo passedUpPk:sum(packetBytes) 0
attr interpolationmode none
attr source packetSentToUpper
attr title "packets passed to higher layer, sum(packetBytes)"
scalar TreeLAN.server1.eth[0].queue.pauseQueue queueLength:max 0
attr interpolationmode sample-hold
attr title "queue length, max"
scalar TreeLAN.server1.eth[0].queue.pauseQueue queueLength:timeavg 0
attr interpolationmode sample-hold
attr title "queue length, timeavg"
statistic TreeLAN.server1.eth[0].queue.pauseQueue queueingTime:histogram
field count 0
field mean nan
field stddev nan
field min nan
field max nan
field sum 0
field sqrsum 0
attr interpolationmode none
attr title "queueing time, histogram"
bin	-inf	0
bin	-0.5	0
bin	-0.46666666666667	0
bin	-0.43333333333333	0
bin	-0.4	0
bin	-0.36666666666667	0
bin	-0.33333333333333	0
bin	-0.3	0
bin	-0.26666666666667	0
bin	-0.23333333333333	0
bin	-0.2	0
bin	-0.16666666666667	0
bin	-0.13333333333333	0
bin	-0.1	0
bin	-0.066666666666667	0
bin	-0.033333333333333	0
bin	-6.9388939039072e-018	0
bin	0.033333333333333	0
bin	0.066666666666667	0
bin	0.1	0
bin	0.13333333333333	0
bin	0.16666666666667	0
bin	0.2	0
bin	0.23333333333333	0
bin	0.26666666666667	0
bin	0.3	0
bin	0.33333333333333	0
bin	0.36666666666667	0
bin	0.4	0
bin	0.43333333333333	0
bin	0.46666666666667	0
bin	0.5	0
scalar TreeLAN.server1.eth[0].queue.pauseQueue dropPk:count 0
attr interpolationmode none
attr source dropPkByQueue
attr title "dropped packets, count"
scalar TreeLAN.server1.eth[0].queue.pauseQueue dropPk:sum(packetBytes) 0
attr interpolationmode none
attr source dropPkByQueue
attr title "dropped packets, sum(packetBytes)"
scalar TreeLAN.server1.eth[0].queue.pauseQueue rcvdPk:count 0
attr interpolationmode none
attr title "received packets, count"
scalar TreeLAN.server1.eth[0].queue.pauseQueue rcvdPk:sum(packetBytes) 0
attr interpolationmode none
attr title "received packets, sum(packetBytes)"
scalar TreeLAN.server1.eth[0].queue.dataQueue queueLength:max 1
attr interpolationmode sample-hold
attr title "queue length, max"
scalar TreeLAN.server1.eth[0].queue.dataQueue queueLength:timeavg 0
attr interpolationmode sample-hold
attr title "queue length, timeavg"
statistic TreeLAN.server1.eth[0].queue.dataQueue queueingTime:histogram
field count 2
field mean 0
field stddev 0
field min 0
field max 0
field sum 0
field sqrsum 0
attr interpolationmode none
attr title "queueing time, histogram"
bin	-inf	0
bin	-0.5	0
bin	-0.46666666666667	0
bin	-0.43333333333333	0
bin	-0.4	0
bin	-0.36666666666667	0
bin	-0.33333333333333	0
bin	-0.3	0
bin	-0.26666666666667	0
bin	-0.23333333333333	0
bin	-0.2	0
bin	-0.16666666666667	0
bin	-0.13333333333333	0
bin	-0.1	0
bin	-0.066666666666667	0
bin	-0.033333333333333	0
bin	-6.9388939039072e-018	2
bin	0.033333333333333	0
bin	0.066666666666667	0
bin	0.1	0
bin	0.13333333333333	0
bin	0.16666666666667	0
bin	0.2	0
bin	0.23333333333333	0
bin	0.26666666666667	0
bin	0.3	0
bin	0.33333333333333	0
bin	0.36666666666667	0
bin	0.4	0
bin	0.43333333333333	0
bin	0.46666666666667	0
bin	0.5	0
scalar TreeLAN.server1.eth[0].queue.dataQueue dropPk:count 0
attr interpolationmode none
attr source dropPkByQueue
attr title "dropped packets, count"
scalar TreeLAN.server1.eth[0].queue.dataQueue dropPk:sum(packetBytes) 0
attr interpolationmode none
attr source dropPkByQueue
attr title "dropped packets, sum(packetBytes)"
scalar TreeLAN.server1.eth[0].queue.dataQueue rcvdPk:count 2
attr interpolationmode none
attr title "received packets, count"
scalar TreeLAN.server1.eth[0].queue.dataQueue rcvdPk:sum(packetBytes) 166
attr interpolationmode none
attr title "received packets, sum(packetBytes)"
scalar TreeLAN.server1.eth[0].mac "simulated time" 2.000097089047
scalar TreeLAN.server1.eth[0].mac full-duplex 1
scalar TreeLAN.server1.eth[0].mac "frames/sec sent" 0.99995145783296
scalar TreeLAN.server1.eth[0].mac "frames/sec rcvd" 1.4999271867494
scalar TreeLAN.server1.eth[0].mac "bits/sec sent" 663.96776800108
scalar TreeLAN.server1.eth[0].mac "bits/sec rcvd" 919.95534120632
scalar TreeLAN.server1.eth[0].mac "rx channel idle (%)" 99.998984049319
scalar TreeLAN.server1.eth[0].mac "rx channel utilization (%)" 0.0010159506811583
scalar TreeLAN.server1.eth[0].mac rxPkFromHL:count 2
attr interpolationmode none
attr source rxPkFromHL
attr title "packet bytes from higher layer, count"
scalar TreeLAN.server1.eth[0].mac rxPkFromHL:sum(packetBytes) 166
attr interpolationmode none
attr source rxPkFromHL
attr title "packet bytes from higher layer, sum(packetBytes)"
scalar TreeLAN.server1.eth[0].mac rxPausePkUnits:count 0
attr interpolationmode none
attr title "pause units received, count"
scalar TreeLAN.server1.eth[0].mac rxPausePkUnits:sum 0
attr interpolationmode none
attr title "pause units received, sum"
scalar TreeLAN.server1.eth[0].mac txPausePkUnits:count 0
attr interpolationmode none
attr title "pause units sent, count"
scalar TreeLAN.server1.eth[0].mac txPausePkUnits:sum 0
attr interpolationmode none
attr title "pause units sent, sum"
scalar TreeLAN.server1.eth[0].mac txPk:count 2
attr interpolationmode none
attr source txPk
attr title "packets transmitted, count"
scalar TreeLAN.server1.eth[0].mac txPk:sum(packetBytes) 166
attr interpolationmode none
attr source txPk
attr title "packets transmitted, sum(packetBytes)"
scalar TreeLAN.server1.eth[0].mac droppedPkNotForUs:count 0
attr interpolationmode none
attr source dropPkNotForUs
attr title "packets dropped/not for us, count"
scalar TreeLAN.server1.eth[0].mac droppedPkNotForUs:sum(packetBytes) 0
attr interpolationmode none
attr source dropPkNotForUs
attr title "packets dropped/not for us, sum(packetBytes)"
scalar TreeLAN.server1.eth[0].mac droppedPkBitError:count 0
attr interpolationmode none
attr source dropPkBitError
attr title "packets dropped/bit error, count"
scalar TreeLAN.server1.eth[0].mac droppedPkBitError:sum(packetBytes) 0
attr interpolationmode none
attr source dropPkBitError
attr title "packets dropped/bit error, sum(packetBytes)"
scalar TreeLAN.server1.eth[0].mac droppedPkIfaceDown:count 0
attr interpolationmode none
attr source dropPkIfaceDown
attr title "packets dropped/interface down, count"
scalar TreeLAN.server1.eth[0].mac droppedPkIfaceDown:sum(packetBytes) 0
attr interpolationmode none
attr source dropPkIfaceDown
attr title "packets dropped/interface down, sum(packetBytes)"
scalar TreeLAN.server1.eth[0].mac rxPkOk:count 3
attr interpolationmode none
attr source rxPkOk
attr title "packets received OK, count"
scalar TreeLAN.server1.eth[0].mac rxPkOk:sum(packetBytes) 230
attr interpolationmode none
attr source rxPkOk
attr title "packets received OK, sum(packetBytes)"
scalar TreeLAN.server1.eth[0].mac passedUpPk:count 3
attr interpolationmode none
attr source packetSentToUpper
attr title "packets passed to higher layer, count"
scalar TreeLAN.server1.eth[0].mac passedUpPk:sum(packetBytes) 230
attr interpolationmode none
attr source packetSentToUpper
attr title "packets passed to higher layer, sum(packetBytes)"
scalar TreeLAN.server1.eth[0].encap pauseSent:count 0
attr title "pause sent, count"
scalar TreeLAN.server1.eth[0].encap pauseSent:sum 0
attr title "pause sent, sum"
scalar TreeLAN.server1.eth[0].encap decapPk:count 3
attr interpolationmode none
attr source decapPk
attr title "packets decapsulated, count"
scalar TreeLAN.server1.eth[0].encap decapPk:sum(packetBytes) 140
attr interpolationmode none
attr source decapPk
attr title "packets decapsulated, sum(packetBytes)"
scalar TreeLAN.server1.eth[0].encap encapPk:count 2
attr interpolationmode none
attr source encapPk
attr title "packets encapsulated, count"
scalar TreeLAN.server1.eth[0].encap encapPk:sum(packetBytes) 112
attr interpolationmode none
attr source encapPk
attr title "packets encapsulated, sum(packetBytes)"
scalar TreeLAN.switch7.relayUnit "processed frames" 7
scalar TreeLAN.switch7.relayUnit "discarded frames" 0
scalar TreeLAN.switch7.eth[0].queue.pauseQueue queueLength:max 0
attr interpolationmode sample-hold
attr title "queue length, max"
scalar TreeLAN.switch7.eth[0].queue.pauseQueue queueLength:timeavg 0
attr interpolationmode sample-hold
attr title "queue length, timeavg"
statistic TreeLAN.switch7.eth[0].queue.pauseQueue queueingTime:histogram
field count 0
field mean nan
field stddev nan
field min nan
field max nan
field sum 0
field sqrsum 0
attr interpolationmode none
attr title "queueing time, histogram"
bin	-inf	0
bin	-0.5	0
bin	-0.46666666666667	0
bin	-0.43333333333333	0
bin	-0.4	0
bin	-0.36666666666667	0
bin	-0.33333333333333	0
bin	-0.3	0
bin	-0.26666666666667	0
bin	-0.23333333333333	0
bin	-0.2	0
bin	-0.16666666666667	0
bin	-0.13333333333333	0
bin	-0.1	0
bin	-0.066666666666667	0
bin	-0.033333333333333	0
bin	-6.9388939039072e-018	0
bin	0.033333333333333	0
bin	0.066666666666667	0
bin	0.1	0
bin	0.13333333333333	0
bin	0.16666666666667	0
bin	0.2	0
[...]
field sqrsum 0
attr interpolationmode none
attr title "queueing time, histogram"
bin	-inf	0
bin	-0.5	0
bin	-0.46666666666667	0
bin	-0.43333333333333	0
bin	-0.4	0
bin	-0.36666666666667	0
bin	-0.33333333333333	0
bin	-0.3	0
bin	-0.26666666666667	0
bin	-0.23333333333333	0
bin	-0.2	0
bin	-0.16666666666667	0
bin	-0.13333333333333	0
bin	-0.1	0
bin	-0.066666666666667	0
bin	-0.033333333333333	0
bin	-6.9388939039072e-018	2
bin	0.033333333333333	0
bin	0.066666666666667	0
bin	0.1	0
bin	0.13333333333333	0
bin	0.16666666666667	0
bin	0.2	0
bin	0.23333333333333	0
bin	0.26666666666667	0
bin	0.3	0
bin	0.33333333333333	0
bin	0.36666666666667	0
bin	0.4	0
bin	0.43333333333333	0
bin	0.46666666666667	0
bin	0.5	0
scalar TreeLAN.switch10.eth[0].queue.dataQueue dropPk:count 0
attr interpolationmode none
attr source dropPkByQueue
attr title "dropped packets, count"
scalar TreeLAN.switch10.eth[0].queue.dataQueue dropPk:sum(packetBytes) 0
attr interpolationmode none
attr source dropPkByQueue
attr title "dropped packets, sum(packetBytes)"
scalar TreeLAN.switch10.eth[0].queue.dataQueue rcvdPk:count 2
attr interpolationmode none
attr title "received packets, count"
scalar TreeLAN.switch10.eth[0].queue.dataQueue rcvdPk:sum(packetBytes) 128
attr interpolationmode none
attr title "received packets, sum(packetBytes)"
scalar TreeLAN.switch10.eth[0].mac "simulated time" 2.000097089047
scalar TreeLAN.switch10.eth[0].mac full-duplex 1
scalar TreeLAN.switch10.eth[0].mac "frames/sec sent" 0.99995145783296
scalar TreeLAN.switch10.eth[0].mac "frames/sec rcvd" 0.49997572891648
scalar TreeLAN.switch10.eth[0].mac "bits/sec sent" 511.97514641047
scalar TreeLAN.switch10.eth[0].mac "bits/sec rcvd" 255.98757320524
scalar TreeLAN.switch10.eth[0].mac "rx channel idle (%)" 99.99971201398
scalar TreeLAN.switch10.eth[0].mac "rx channel utilization (%)" 0.00028798601985589
scalar TreeLAN.switch10.eth[0].mac "rx channel collision (%)" 0
scalar TreeLAN.switch10.eth[0].mac collisions 0
scalar TreeLAN.switch10.eth[0].mac backoffs 0
scalar TreeLAN.switch10.eth[0].mac backoff:count 0
attr interpolationmode none
attr title "backoff, count"
scalar TreeLAN.switch10.eth[0].mac collision:count 0
attr interpolationmode none
attr title "collision, count"
scalar TreeLAN.switch10.eth[0].mac rxPkFromHL:count 2
attr interpolationmode none
attr source rxPkFromHL
attr title "packet bytes from higher layer, count"
scalar TreeLAN.switch10.eth[0].mac rxPkFromHL:sum(packetBytes) 128
attr interpolationmode none
attr source rxPkFromHL
attr title "packet bytes from higher layer, sum(packetBytes)"
scalar TreeLAN.switch10.eth[0].mac rxPausePkUnits:count 0
attr interpolationmode none
attr title "pause units received, count"
scalar TreeLAN.switch10.eth[0].mac rxPausePkUnits:sum 0
attr interpolationmode none
attr title "pause units received, sum"
scalar TreeLAN.switch10.eth[0].mac txPausePkUnits:count 0
attr interpolationmode none
attr title "pause units sent, count"
scalar TreeLAN.switch10.eth[0].mac txPausePkUnits:sum 0
attr interpolationmode none
attr title "pause units sent, sum"
scalar TreeLAN.switch10.eth[0].mac txPk:count 2
attr interpolationmode none
attr source txPk
attr title "packets transmitted, count"
scalar TreeLAN.switch10.eth[0].mac txPk:sum(packetBytes) 128
attr interpolationmode none
attr source txPk
attr title "packets transmitted, sum(packetBytes)"
scalar TreeLAN.switch10.eth[0].mac droppedPkNotForUs:count 0
attr interpolationmode none
attr source dropPkNotForUs
attr title "packets dropped/not for us, count"
scalar TreeLAN.switch10.eth[0].mac droppedPkNotForUs:sum(packetBytes) 0
attr interpolationmode none
attr source dropPkNotForUs
attr title "packets dropped/not for us, sum(packetBytes)"
scalar TreeLAN.switch10.eth[0].mac droppedPkBitError:count 0
attr interpolationmode none
attr source dropPkBitError
attr title "packets dropped/bit error, count"
scalar TreeLAN.switch10.eth[0].mac droppedPkBitError:sum(packetBytes) 0
attr interpolationmode none
attr source dropPkBitError
attr title "packets dropped/bit error, sum(packetBytes)"
scalar TreeLAN.switch10.eth[0].mac droppedPkIfaceDown:count 0
attr interpolationmode none
attr source dropPkIfaceDown
attr title "packets dropped/interface down, count"
scalar TreeLAN.switch10.eth[0].mac droppedPkIfaceDown:sum(packetBytes) 0
attr interpolationmode none
attr source dropPkIfaceDown
attr title "packets dropped/interface down, sum(packetBytes)"
scalar TreeLAN.switch10.eth[0].mac rxPkOk:count 1
attr interpolationmode none
attr source rxPkOk
attr title "packets received OK, count"
scalar TreeLAN.switch10.eth[0].mac rxPkOk:sum(packetBytes) 64
attr interpolationmode none
attr source rxPkOk
attr title "packets received OK, sum(packetBytes)"
scalar TreeLAN.switch10.eth[0].mac passedUpPk:count 1
attr interpolationmode none
attr source packetSentToUpper
attr title "packets passed to higher layer, count"
scalar TreeLAN.switch10.eth[0].mac passedUpPk:sum(packetBytes) 64
attr interpolationmode none
attr source packetSentToUpper
attr title "packets passed to higher layer, sum(packetBytes)"
scalar TreeLAN.switch10.eth[1].queue.pauseQueue queueLength:max 0
attr interpolationmode sample-hold
attr title "queue length, max"
scalar TreeLAN.switch10.eth[1].queue.pauseQueue queueLength:timeavg 0
attr interpolationmode sample-hold
attr title "queue length, timeavg"
statistic TreeLAN.switch10.eth[1].queue.pauseQueue queueingTime:histogram
field count 0
field mean nan
field stddev nan
field min nan
field max nan
field sum 0
field sqrsum 0
attr interpolationmode none
attr title "queueing time, histogram"
bin	-inf	0
bin	-0.5	0
bin	-0.46666666666667	0
bin	-0.43333333333333	0
bin	-0.4	0
bin	-0.36666666666667	0
bin	-0.33333333333333	0
bin	-0.3	0
bin	-0.26666666666667	0
bin	-0.23333333333333	0
bin	-0.2	0
bin	-0.16666666666667	0
bin	-0.13333333333333	0
bin	-0.1	0
bin	-0.066666666666667	0
bin	-0.033333333333333	0
bin	-6.9388939039072e-018	0
bin	0.033333333333333	0
bin	0.066666666666667	0
bin	0.1	0
bin	0.13333333333333	0
bin	0.16666666666667	0
bin	0.2	0
bin	0.23333333333333	0
bin	0.26666666666667	0
bin	0.3	0
bin	0.33333333333333	0
bin	0.36666666666667	0
bin	0.4	0
bin	0.43333333333333	0
bin	0.46666666666667	0
bin	0.5	0
scalar TreeLAN.switch10.eth[1].queue.pauseQueue dropPk:count 0
attr interpolationmode none
attr source dropPkByQueue
attr title "dropped packets, count"
scalar TreeLAN.switch10.eth[1].queue.pauseQueue dropPk:sum(packetBytes) 0
attr interpolationmode none
attr source dropPkByQueue
attr title "dropped packets, sum(packetBytes)"
scalar TreeLAN.switch10.eth[1].queue.pauseQueue rcvdPk:count 0
attr interpolationmode none
attr title "received packets, count"
scalar TreeLAN.switch10.eth[1].queue.pauseQueue rcvdPk:sum(packetBytes) 0
attr interpolationmode none
attr title "received packets, sum(packetBytes)"
scalar TreeLAN.switch10.eth[1].queue.dataQueue queueLength:max 1
attr interpolationmode sample-hold
attr title "queue length, max"
scalar TreeLAN.switch10.eth[1].queue.dataQueue queueLength:timeavg 0
attr interpolationmode sample-hold
attr title "queue length, timeavg"
statistic TreeLAN.switch10.eth[1].queue.dataQueue queueingTime:histogram
field count 1
field mean 0
field stddev nan
field min 0
field max 0
field sum 0
field sqrsum 0
attr interpolationmode none
attr title "queueing time, histogram"
bin	-inf	0
bin	-0.5	0
bin	-0.46666666666667	0
bin	-0.43333333333333	0
bin	-0.4	0
bin	-0.36666666666667	0
bin	-0.33333333333333	0
bin	-0.3	0
bin	-0.26666666666667	0
bin	-0.23333333333333	0
bin	-0.2	0
bin	-0.16666666666667	0
bin	-0.13333333333333	0
bin	-0.1	0
bin	-0.066666666666667	0
bin	-0.033333333333333	0
bin	-6.9388939039072e-018	1
bin	0.033333333333333	0
bin	0.066666666666667	0
bin	0.1	0
bin	0.13333333333333	0
bin	0.16666666666667	0
bin	0.2	0
bin	0.23333333333333	0
bin	0.26666666666667	0
bin	0.3	0
bin	0.33333333333333	0
bin	0.36666666666667	0
bin	0.4	0
bin	0.43333333333333	0
bin	0.46666666666667	0
bin	0.5	0
scalar TreeLAN.switch10.eth[1].queue.dataQueue dropPk:count 0
attr interpolationmode none
attr source dropPkByQueue
attr title "dropped packets, count"
scalar TreeLAN.switch10.eth[1].queue.dataQueue dropPk:sum(packetBytes) 0
attr interpolationmode none
attr source dropPkByQueue
attr title "dropped packets, sum(packetBytes)"
scalar TreeLAN.switch10.eth[1].queue.dataQueue rcvdPk:count 1
attr interpolationmode none
attr title "received packets, count"
scalar TreeLAN.switch10.eth[1].queue.dataQueue rcvdPk:sum(packetBytes) 64
attr interpolationmode none
attr title "received packets, sum(packetBytes)"
scalar TreeLAN.switch10.eth[1].mac "simulated time" 2.000097089047
scalar TreeLAN.switch10.eth[1].mac full-duplex 1
scalar TreeLAN.switch10.eth[1].mac "frames/sec sent" 0.49997572891648
scalar TreeLAN.switch10.eth[1].mac "frames/sec rcvd" 0.99995145783296
scalar TreeLAN.switch10.eth[1].mac "bits/sec sent" 255.98757320524
scalar TreeLAN.switch10.eth[1].mac "bits/sec rcvd" 511.97514641047
scalar TreeLAN.switch10.eth[1].mac "rx channel idle (%)" 99.99942402796
scalar TreeLAN.switch10.eth[1].mac "rx channel utilization (%)" 0.00057597203971178
scalar TreeLAN.switch10.eth[1].mac "rx channel collision (%)" 0
scalar TreeLAN.switch10.eth[1].mac collisions 0
scalar TreeLAN.switch10.eth[1].mac backoffs 0
scalar TreeLAN.switch10.eth[1].mac backoff:count 0
attr interpolationmode none
attr title "backoff, count"
scalar TreeLAN.switch10.eth[1].mac collision:count 0
attr interpolationmode none
attr title "collision, count"
scalar TreeLAN.switch10.eth[1].mac rxPkFromHL:count 1
attr interpolationmode none
attr source rxPkFromHL
attr title "packet bytes from higher layer, count"
scalar TreeLAN.switch10.eth[1].mac rxPkFromHL:sum(packetBytes) 64
attr interpolationmode none
attr source rxPkFromHL
attr title "packet bytes from higher layer, sum(packetBytes)"
scalar TreeLAN.switch10.eth[1].mac rxPausePkUnits:count 0
attr interpolationmode none
attr title "pause units received, count"
scalar TreeLAN.switch10.eth[1].mac rxPausePkUnits:sum 0
attr interpolationmode none
attr title "pause units received, sum"
scalar TreeLAN.switch10.eth[1].mac txPausePkUnits:count 0
attr interpolationmode none
attr title "pause units sent, count"
scalar TreeLAN.switch10.eth[1].mac txPausePkUnits:sum 0
attr interpolationmode none
attr title "pause units sent, sum"
scalar TreeLAN.switch10.eth[1].mac txPk:count 1
attr interpolationmode none
attr source txPk
attr title "packets transmitted, count"
scalar TreeLAN.switch10.eth[1].mac txPk:sum(packetBytes) 64
attr interpolationmode none
attr source txPk
attr title "packets transmitted, sum(packetBytes)"
scalar TreeLAN.switch10.eth[1].mac droppedPkNotForUs:count 0
attr interpolationmode none
attr source dropPkNotForUs
attr title "packets dropped/not for us, count"
scalar TreeLAN.switch10.eth[1].mac droppedPkNotForUs:sum(packetBytes) 0
attr interpolationmode none
attr source dropPkNotForUs
attr title "packets dropped/not for us, sum(packetBytes)"
scalar TreeLAN.switch10.eth[1].mac droppedPkBitError:count 0
attr interpolationmode none
attr source dropPkBitError
attr title "packets dropped/bit error, count"
scalar TreeLAN.switch10.eth[1].mac droppedPkBitError:sum(packetBytes) 0
attr interpolationmode none
attr source dropPkBitError
attr title "packets dropped/bit error, sum(packetBytes)"
scalar TreeLAN.switch10.eth[1].mac droppedPkIfaceDown:count 0
attr interpolationmode none
attr source dropPkIfaceDown
attr title "packets dropped/interface down, count"
scalar TreeLAN.switch10.eth[1].mac droppedPkIfaceDown:sum(packetBytes) 0
attr interpolationmode none
attr source dropPkIfaceDown
attr title "packets dropped/interface down, sum(packetBytes)"
scalar TreeLAN.switch10.eth[1].mac rxPkOk:count 2
attr interpolationmode none
attr source rxPkOk
attr title "packets received OK, count"
scalar TreeLAN.switch10.eth[1].mac rxPkOk:sum(packetBytes) 128
attr interpolationmode none
attr source rxPkOk
attr title "packets received OK, sum(packetBytes)"
scalar TreeLAN.switch10.eth[1].mac passedUpPk:count 2
attr interpolationmode none
attr source packetSentToUpper
attr title "packets passed to higher layer, count"
scalar TreeLAN.switch10.eth[1].mac passedUpPk:sum(packetBytes) 128
attr interpolationmode none
attr source packetSentToUpper
attr title "packets passed to higher layer, sum(packetBytes)"
scalar TreeLAN.switch10.eth[2].queue.pauseQueue queueLength:max 0
attr interpolationmode sample-hold
attr title "queue length, max"
scalar TreeLAN.switch10.eth[2].queue.pauseQueue queueLength:timeavg 0
attr interpolationmode sample-hold
attr title "queue length, timeavg"
statistic TreeLAN.switch10.eth[2].queue.pauseQueue queueingTime:histogram
field count 0
field mean nan
field stddev nan
field min nan
field max nan
field sum 0
field sqrsum 0
attr interpolationmode none
attr title "queueing time, histogram"
bin	-inf	0
bin	-0.5	0
bin	-0.46666666666667	0
bin	-0.43333333333333	0
bin	-0.4	0
bin	-0.36666666666667	0
bin	-0.33333333333333	0
bin	-0.3	0
bin	-0.26666666666667	0
bin	-0.23333333333333	0
bin	-0.2	0
bin	-0.16666666666667	0
bin	-0.13333333333333	0
bin	-0.1	0
bin	-0.066666666666667	0
bin	-0.033333333333333	0
bin	-6.9388939039072e-018	0
bin	0.033333333333333	0
bin	0.066666666666667	0
bin	0.1	0
bin	0.13333333333333	0
bin	0.16666666666667	0
bin	0.2	0
bin	0.23333333333333	0
bin	0.26666666666667	0
bin	0.3	0
bin	0.33333333333333	0
bin	0.36666666666667	0
bin	0.4	0
bin	0.43333333333333	0
bin	0.46666666666667	0
bin	0.5	0
scalar TreeLAN.switch10.eth[2].queue.pauseQueue dropPk:count 0
attr interpolationmode none
attr source dropPkByQueue
attr title "dropped packets, count"
scalar TreeLAN.switch10.eth[2].queue.pauseQueue dropPk:sum(packetBytes) 0
attr interpolationmode none
attr source dropPkByQueue
attr title "dropped packets, sum(packetBytes)"
scalar TreeLAN.switch10.eth[2].queue.pauseQueue rcvdPk:count 0
attr interpolationmode none
attr title "received packets, count"
scalar TreeLAN.switch10.eth[2].queue.pauseQueue rcvdPk:sum(packetBytes) 0
attr interpolationmode none
attr title "received packets, sum(packetBytes)"
scalar TreeLAN.switch10.eth[2].queue.dataQueue queueLength:max 1
attr interpolationmode sample-hold
attr title "queue length, max"
scalar TreeLAN.switch10.eth[2].queue.dataQueue queueLength:timeavg 0
attr interpolationmode sample-hold
attr title "queue length, timeavg"
statistic TreeLAN.switch10.eth[2].queue.dataQueue queueingTime:histogram
field count 1
field mean 0
field stddev nan
field min 0
field max 0
field sum 0
field sqrsum 0
attr interpolationmode none
attr title "queueing time, histogram"
bin	-inf	0
bin	-0.5	0
bin	-0.46666666666667	0
bin	-0.43333333333333	0
bin	-0.4	0
bin	-0.36666666666667	0
bin	-0.33333333333333	0
bin	-0.3	0
bin	-0.26666666666667	0
bin	-0.23333333333333	0
bin	-0.2	0
bin	-0.16666666666667	0
bin	-0.13333333333333	0
bin	-0.1	0
bin	-0.066666666666667	0
bin	-0.033333333333333	0
bin	-6.9388939039072e-018	1
bin	0.033333333333333	0
bin	0.066666666666667	0
bin	0.1	0
bin	0.13333333333333	0
bin	0.16666666666667	0
bin	0.2	0
bin	0.23333333333333	0
bin	0.26666666666667	0
bin	0.3	0
bin	0.33333333333333	0
bin	0.36666666666667	0
bin	0.4	0
bin	0.43333333333333	0
bin	0.46666666666667	0
bin	0.5	0
scalar TreeLAN.switch10.eth[2].queue.dataQueue dropPk:count 0
attr interpolationmode none
attr source dropPkByQueue
attr title "dropped packets, count"
scalar TreeLAN.switch10.eth[2].queue.dataQueue dropPk:sum(packetBytes) 0
attr interpolationmode none
attr source dropPkByQueue
attr title "dropped packets, sum(packetBytes)"
scalar TreeLAN.switch10.eth[2].queue.dataQueue rcvdPk:count 1
attr interpolationmode none
attr title "received packets, count"
scalar TreeLAN.switch10.eth[2].queue.dataQueue rcvdPk:sum(packetBytes) 64
attr interpolationmode none
attr title "received packets, sum(packetBytes)"
scalar TreeLAN.switch10.eth[2].mac "simulated time" 2.000097089047
scalar TreeLAN.switch10.eth[2].mac full-duplex 1
scalar TreeLAN.switch10.eth[2].mac "frames/sec sent" 0.49997572891648
scalar TreeLAN.switch10.eth[2].mac "frames/sec rcvd" 0.49997572891648
scalar TreeLAN.switch10.eth[2].mac "bits/sec sent" 255.98757320524
scalar TreeLAN.switch10.eth[2].mac "bits/sec rcvd" 255.98757320524
scalar TreeLAN.switch10.eth[2].mac "rx channel idle (%)" 99.99971201398
scalar TreeLAN.switch10.eth[2].mac "rx channel utilization (%)" 0.00028798601985589
scalar TreeLAN.switch10.eth[2].mac "rx channel collision (%)" 0
scalar TreeLAN.switch10.eth[2].mac collisions 0
scalar TreeLAN.switch10.eth[2].mac backoffs 0
scalar TreeLAN.switch10.eth[2].mac backoff:count 0
attr interpolationmode none
attr title "backoff, count"
scalar TreeLAN.switch10.eth[2].mac collision:count 0
attr interpolationmode none
attr title "collision, count"
scalar TreeLAN.switch10.eth[2].mac rxPkFromHL:count 1
attr interpolationmode none
attr source rxPkFromHL
attr title "packet bytes from higher layer, count"
scalar TreeLAN.switch10.eth[2].mac rxPkFromHL:sum(packetBytes) 64
attr interpolationmode none
attr source rxPkFromHL
attr title "packet bytes from higher layer, sum(packetBytes)"
scalar TreeLAN.switch10.eth[2].mac rxPausePkUnits:count 0
attr interpolationmode none
attr title "pause units received, count"
scalar TreeLAN.switch10.eth[2].mac rxPausePkUnits:sum 0
attr interpolationmode none
attr title "pause units received, sum"
scalar TreeLAN.switch10.eth[2].mac txPausePkUnits:count 0
attr interpolationmode none
attr title "pause units sent, count"
scalar TreeLAN.switch10.eth[2].mac txPausePkUnits:sum 0
attr interpolationmode none
attr title "pause units sent, sum"
scalar TreeLAN.switch10.eth[2].mac txPk:count 1
attr interpolationmode none
attr source txPk
attr title "packets transmitted, count"
scalar TreeLAN.switch10.eth[2].mac txPk:sum(packetBytes) 64
attr interpolationmode none
attr source txPk
attr title "packets transmitted, sum(packetBytes)"
scalar TreeLAN.switch10.eth[2].mac droppedPkNotForUs:count 0
attr interpolationmode none
attr source dropPkNotForUs
attr title "packets dropped/not for us, count"
scalar TreeLAN.switch10.eth[2].mac droppedPkNotForUs:sum(packetBytes) 0
attr interpolationmode none
attr source dropPkNotForUs
attr title "packets dropped/not for us, sum(packetBytes)"
scalar TreeLAN.switch10.eth[2].mac droppedPkBitError:count 0
attr interpolationmode none
attr source dropPkBitError
attr title "packets dropped/bit error, count"
scalar TreeLAN.switch10.eth[2].mac droppedPkBitError:sum(packetBytes) 0
attr interpolationmode none
attr source dropPkBitError
attr title "packets dropped/bit error, sum(packetBytes)"
scalar TreeLAN.switch10.eth[2].mac droppedPkIfaceDown:count 0
attr interpolationmode none
attr source dropPkIfaceDown
attr title "packets dropped/interface down, count"
scalar TreeLAN.switch10.eth[2].mac droppedPkIfaceDown:sum(packetBytes) 0
attr interpolationmode none
attr source dropPkIfaceDown
attr title "packets dropped/interface down, sum(packetBytes)"
scalar TreeLAN.switch10.eth[2].mac rxPkOk:count 1
attr interpolationmode none
attr source rxPkOk
attr title "packets received OK, count"
scalar TreeLAN.switch10.eth[2].mac rxPkOk:sum(packetBytes) 64
attr interpolationmode none
attr source rxPkOk
attr title "packets received OK, sum(packetBytes)"
scalar TreeLAN.switch10.eth[2].mac passedUpPk:count 1
attr interpolationmode none
attr source packetSentToUpper
attr title "packets passed to higher layer, count"
scalar TreeLAN.switch10.eth[2].mac passedUpPk:sum(packetBytes) 64
attr interpolationmode none
attr source packetSentToUpper
attr title "packets passed to higher layer, sum(packetBytes)"

